/*--------------------------------*- C++ -*----------------------------------*\
  =========                 |
  \\      /  F ield         | OpenFOAM: The Open Source CFD Toolbox
   \\    /   O peration     | Website:  https://openfoam.org
    \\  /    A nd           | Version:  7
     \\/     M anipulation  |
\*---------------------------------------------------------------------------*/
FoamFile
{
    version     2.0;
    format      ascii;
    class       polyBoundaryMesh;
    location    "constant/polyMesh";
    object      boundary;
}
// * * * * * * * * * * * * * * * * * * * * * * * * * * * * * * * * * * * * * //

12
(
    inlet
    {
        type            patch;
        nFaces          0;
        startFace       723;
    }
    outlet
    {
        type            patch;
        nFaces          0;
        startFace       723;
    }
    cylinder
    {
        type            wall;
        inGroups        List<word> 1(wall);
        nFaces          0;
        startFace       723;
    }
    top
    {
        type            symmetryPlane;
        inGroups        List<word> 1(symmetryPlane);
        nFaces          0;
        startFace       723;
    }
    bottom
    {
        type            symmetryPlane;
        inGroups        List<word> 1(symmetryPlane);
        nFaces          0;
        startFace       723;
    }
    defaultFaces
    {
        type            empty;
        inGroups        List<word> 1(empty);
        nFaces          770;
        startFace       723;
    }
    procBoundary43to34
    {
        type            processor;
        inGroups        List<word> 1(processor);
        nFaces          8;
        startFace       1493;
        matchTolerance  0.0001;
        transform       unknown;
        myProcNo        43;
        neighbProcNo    34;
    }
    procBoundary43to35
    {
        type            processor;
        inGroups        List<word> 1(processor);
        nFaces          15;
        startFace       1501;
        matchTolerance  0.0001;
        transform       unknown;
        myProcNo        43;
        neighbProcNo    35;
    }
    procBoundary43to36
    {
        type            processor;
        inGroups        List<word> 1(processor);
        nFaces          15;
        startFace       1516;
        matchTolerance  0.0001;
        transform       unknown;
        myProcNo        43;
        neighbProcNo    36;
    }
    procBoundary43to42
    {
        type            processor;
        inGroups        List<word> 1(processor);
        nFaces          24;
        startFace       1531;
        matchTolerance  0.0001;
        transform       unknown;
        myProcNo        43;
        neighbProcNo    42;
    }
    procBoundary43to44
    {
        type            processor;
        inGroups        List<word> 1(processor);
        nFaces          18;
        startFace       1555;
        matchTolerance  0.0001;
        transform       unknown;
        myProcNo        43;
        neighbProcNo    44;
    }
    procBoundary43to51
    {
        type            processor;
        inGroups        List<word> 1(processor);
        nFaces          14;
        startFace       1573;
        matchTolerance  0.0001;
        transform       unknown;
        myProcNo        43;
        neighbProcNo    51;
    }
)

// ************************************************************************* //
