/*--------------------------------*- C++ -*----------------------------------*\
  =========                 |
  \\      /  F ield         | OpenFOAM: The Open Source CFD Toolbox
   \\    /   O peration     | Website:  https://openfoam.org
    \\  /    A nd           | Version:  7
     \\/     M anipulation  |
\*---------------------------------------------------------------------------*/
FoamFile
{
    version     2.0;
    format      ascii;
    class       polyBoundaryMesh;
    location    "constant/polyMesh";
    object      boundary;
}
// * * * * * * * * * * * * * * * * * * * * * * * * * * * * * * * * * * * * * //

12
(
    inlet
    {
        type            patch;
        nFaces          0;
        startFace       1163;
    }
    outlet
    {
        type            patch;
        nFaces          0;
        startFace       1163;
    }
    cylinder
    {
        type            wall;
        inGroups        List<word> 1(wall);
        nFaces          0;
        startFace       1163;
    }
    top
    {
        type            symmetryPlane;
        inGroups        List<word> 1(symmetryPlane);
        nFaces          0;
        startFace       1163;
    }
    bottom
    {
        type            symmetryPlane;
        inGroups        List<word> 1(symmetryPlane);
        nFaces          0;
        startFace       1163;
    }
    defaultFaces
    {
        type            empty;
        inGroups        List<word> 1(empty);
        nFaces          1214;
        startFace       1163;
    }
    procBoundary13to5
    {
        type            processor;
        inGroups        List<word> 1(processor);
        nFaces          22;
        startFace       2377;
        matchTolerance  0.0001;
        transform       unknown;
        myProcNo        13;
        neighbProcNo    5;
    }
    procBoundary13to6
    {
        type            processor;
        inGroups        List<word> 1(processor);
        nFaces          1;
        startFace       2399;
        matchTolerance  0.0001;
        transform       unknown;
        myProcNo        13;
        neighbProcNo    6;
    }
    procBoundary13to12
    {
        type            processor;
        inGroups        List<word> 1(processor);
        nFaces          20;
        startFace       2400;
        matchTolerance  0.0001;
        transform       unknown;
        myProcNo        13;
        neighbProcNo    12;
    }
    procBoundary13to14
    {
        type            processor;
        inGroups        List<word> 1(processor);
        nFaces          27;
        startFace       2420;
        matchTolerance  0.0001;
        transform       unknown;
        myProcNo        13;
        neighbProcNo    14;
    }
    procBoundary13to20
    {
        type            processor;
        inGroups        List<word> 1(processor);
        nFaces          9;
        startFace       2447;
        matchTolerance  0.0001;
        transform       unknown;
        myProcNo        13;
        neighbProcNo    20;
    }
    procBoundary13to21
    {
        type            processor;
        inGroups        List<word> 1(processor);
        nFaces          23;
        startFace       2456;
        matchTolerance  0.0001;
        transform       unknown;
        myProcNo        13;
        neighbProcNo    21;
    }
)

// ************************************************************************* //
