/*--------------------------------*- C++ -*----------------------------------*\
  =========                 |
  \\      /  F ield         | OpenFOAM: The Open Source CFD Toolbox
   \\    /   O peration     | Website:  https://openfoam.org
    \\  /    A nd           | Version:  7
     \\/     M anipulation  |
\*---------------------------------------------------------------------------*/
FoamFile
{
    version     2.0;
    format      ascii;
    class       polyBoundaryMesh;
    location    "constant/polyMesh";
    object      boundary;
}
// * * * * * * * * * * * * * * * * * * * * * * * * * * * * * * * * * * * * * //

12
(
    inlet
    {
        type            patch;
        nFaces          0;
        startFace       1162;
    }
    outlet
    {
        type            patch;
        nFaces          0;
        startFace       1162;
    }
    cylinder
    {
        type            wall;
        inGroups        List<word> 1(wall);
        nFaces          0;
        startFace       1162;
    }
    top
    {
        type            symmetryPlane;
        inGroups        List<word> 1(symmetryPlane);
        nFaces          0;
        startFace       1162;
    }
    bottom
    {
        type            symmetryPlane;
        inGroups        List<word> 1(symmetryPlane);
        nFaces          0;
        startFace       1162;
    }
    defaultFaces
    {
        type            empty;
        inGroups        List<word> 1(empty);
        nFaces          1214;
        startFace       1162;
    }
    procBoundary12to3
    {
        type            processor;
        inGroups        List<word> 1(processor);
        nFaces          8;
        startFace       2376;
        matchTolerance  0.0001;
        transform       unknown;
        myProcNo        12;
        neighbProcNo    3;
    }
    procBoundary12to4
    {
        type            processor;
        inGroups        List<word> 1(processor);
        nFaces          26;
        startFace       2384;
        matchTolerance  0.0001;
        transform       unknown;
        myProcNo        12;
        neighbProcNo    4;
    }
    procBoundary12to5
    {
        type            processor;
        inGroups        List<word> 1(processor);
        nFaces          5;
        startFace       2410;
        matchTolerance  0.0001;
        transform       unknown;
        myProcNo        12;
        neighbProcNo    5;
    }
    procBoundary12to11
    {
        type            processor;
        inGroups        List<word> 1(processor);
        nFaces          18;
        startFace       2415;
        matchTolerance  0.0001;
        transform       unknown;
        myProcNo        12;
        neighbProcNo    11;
    }
    procBoundary12to13
    {
        type            processor;
        inGroups        List<word> 1(processor);
        nFaces          20;
        startFace       2433;
        matchTolerance  0.0001;
        transform       unknown;
        myProcNo        12;
        neighbProcNo    13;
    }
    procBoundary12to20
    {
        type            processor;
        inGroups        List<word> 1(processor);
        nFaces          27;
        startFace       2453;
        matchTolerance  0.0001;
        transform       unknown;
        myProcNo        12;
        neighbProcNo    20;
    }
)

// ************************************************************************* //
