/*--------------------------------*- C++ -*----------------------------------*\
  =========                 |
  \\      /  F ield         | OpenFOAM: The Open Source CFD Toolbox
   \\    /   O peration     | Website:  https://openfoam.org
    \\  /    A nd           | Version:  7
     \\/     M anipulation  |
\*---------------------------------------------------------------------------*/
FoamFile
{
    version     2.0;
    format      ascii;
    class       polyBoundaryMesh;
    location    "constant/polyMesh";
    object      boundary;
}
// * * * * * * * * * * * * * * * * * * * * * * * * * * * * * * * * * * * * * //

10
(
    inlet
    {
        type            patch;
        nFaces          0;
        startFace       729;
    }
    outlet
    {
        type            patch;
        nFaces          22;
        startFace       729;
    }
    cylinder
    {
        type            wall;
        inGroups        List<word> 1(wall);
        nFaces          0;
        startFace       751;
    }
    top
    {
        type            symmetryPlane;
        inGroups        List<word> 1(symmetryPlane);
        nFaces          0;
        startFace       751;
    }
    bottom
    {
        type            symmetryPlane;
        inGroups        List<word> 1(symmetryPlane);
        nFaces          0;
        startFace       751;
    }
    defaultFaces
    {
        type            empty;
        inGroups        List<word> 1(empty);
        nFaces          770;
        startFace       751;
    }
    procBoundary31to23
    {
        type            processor;
        inGroups        List<word> 1(processor);
        nFaces          19;
        startFace       1521;
        matchTolerance  0.0001;
        transform       unknown;
        myProcNo        31;
        neighbProcNo    23;
    }
    procBoundary31to30
    {
        type            processor;
        inGroups        List<word> 1(processor);
        nFaces          20;
        startFace       1540;
        matchTolerance  0.0001;
        transform       unknown;
        myProcNo        31;
        neighbProcNo    30;
    }
    procBoundary31to38
    {
        type            processor;
        inGroups        List<word> 1(processor);
        nFaces          2;
        startFace       1560;
        matchTolerance  0.0001;
        transform       unknown;
        myProcNo        31;
        neighbProcNo    38;
    }
    procBoundary31to39
    {
        type            processor;
        inGroups        List<word> 1(processor);
        nFaces          19;
        startFace       1562;
        matchTolerance  0.0001;
        transform       unknown;
        myProcNo        31;
        neighbProcNo    39;
    }
)

// ************************************************************************* //
