/*--------------------------------*- C++ -*----------------------------------*\
  =========                 |
  \\      /  F ield         | OpenFOAM: The Open Source CFD Toolbox
   \\    /   O peration     | Website:  https://openfoam.org
    \\  /    A nd           | Version:  7
     \\/     M anipulation  |
\*---------------------------------------------------------------------------*/
FoamFile
{
    version     2.0;
    format      ascii;
    class       polyBoundaryMesh;
    location    "constant/polyMesh";
    object      boundary;
}
// * * * * * * * * * * * * * * * * * * * * * * * * * * * * * * * * * * * * * //

12
(
    inlet
    {
        type            patch;
        nFaces          0;
        startFace       1163;
    }
    outlet
    {
        type            patch;
        nFaces          0;
        startFace       1163;
    }
    cylinder
    {
        type            wall;
        inGroups        List<word> 1(wall);
        nFaces          0;
        startFace       1163;
    }
    top
    {
        type            symmetryPlane;
        inGroups        List<word> 1(symmetryPlane);
        nFaces          0;
        startFace       1163;
    }
    bottom
    {
        type            symmetryPlane;
        inGroups        List<word> 1(symmetryPlane);
        nFaces          0;
        startFace       1163;
    }
    defaultFaces
    {
        type            empty;
        inGroups        List<word> 1(empty);
        nFaces          1214;
        startFace       1163;
    }
    procBoundary14to6
    {
        type            processor;
        inGroups        List<word> 1(processor);
        nFaces          22;
        startFace       2377;
        matchTolerance  0.0001;
        transform       unknown;
        myProcNo        14;
        neighbProcNo    6;
    }
    procBoundary14to7
    {
        type            processor;
        inGroups        List<word> 1(processor);
        nFaces          1;
        startFace       2399;
        matchTolerance  0.0001;
        transform       unknown;
        myProcNo        14;
        neighbProcNo    7;
    }
    procBoundary14to13
    {
        type            processor;
        inGroups        List<word> 1(processor);
        nFaces          27;
        startFace       2400;
        matchTolerance  0.0001;
        transform       unknown;
        myProcNo        14;
        neighbProcNo    13;
    }
    procBoundary14to15
    {
        type            processor;
        inGroups        List<word> 1(processor);
        nFaces          28;
        startFace       2427;
        matchTolerance  0.0001;
        transform       unknown;
        myProcNo        14;
        neighbProcNo    15;
    }
    procBoundary14to21
    {
        type            processor;
        inGroups        List<word> 1(processor);
        nFaces          2;
        startFace       2455;
        matchTolerance  0.0001;
        transform       unknown;
        myProcNo        14;
        neighbProcNo    21;
    }
    procBoundary14to22
    {
        type            processor;
        inGroups        List<word> 1(processor);
        nFaces          22;
        startFace       2457;
        matchTolerance  0.0001;
        transform       unknown;
        myProcNo        14;
        neighbProcNo    22;
    }
)

// ************************************************************************* //
