/*--------------------------------*- C++ -*----------------------------------*\
  =========                 |
  \\      /  F ield         | OpenFOAM: The Open Source CFD Toolbox
   \\    /   O peration     | Website:  https://openfoam.org
    \\  /    A nd           | Version:  7
     \\/     M anipulation  |
\*---------------------------------------------------------------------------*/
FoamFile
{
    version     2.0;
    format      ascii;
    class       polyBoundaryMesh;
    location    "constant/polyMesh";
    object      boundary;
}
// * * * * * * * * * * * * * * * * * * * * * * * * * * * * * * * * * * * * * //

12
(
    inlet
    {
        type            patch;
        nFaces          0;
        startFace       1136;
    }
    outlet
    {
        type            patch;
        nFaces          0;
        startFace       1136;
    }
    cylinder
    {
        type            wall;
        inGroups        List<word> 1(wall);
        nFaces          0;
        startFace       1136;
    }
    top
    {
        type            symmetryPlane;
        inGroups        List<word> 1(symmetryPlane);
        nFaces          0;
        startFace       1136;
    }
    bottom
    {
        type            symmetryPlane;
        inGroups        List<word> 1(symmetryPlane);
        nFaces          0;
        startFace       1136;
    }
    defaultFaces
    {
        type            empty;
        inGroups        List<word> 1(empty);
        nFaces          1214;
        startFace       1136;
    }
    procBoundary18to10
    {
        type            processor;
        inGroups        List<word> 1(processor);
        nFaces          22;
        startFace       2350;
        matchTolerance  0.0001;
        transform       unknown;
        myProcNo        18;
        neighbProcNo    10;
    }
    procBoundary18to11
    {
        type            processor;
        inGroups        List<word> 1(processor);
        nFaces          10;
        startFace       2372;
        matchTolerance  0.0001;
        transform       unknown;
        myProcNo        18;
        neighbProcNo    11;
    }
    procBoundary18to17
    {
        type            processor;
        inGroups        List<word> 1(processor);
        nFaces          41;
        startFace       2382;
        matchTolerance  0.0001;
        transform       unknown;
        myProcNo        18;
        neighbProcNo    17;
    }
    procBoundary18to19
    {
        type            processor;
        inGroups        List<word> 1(processor);
        nFaces          32;
        startFace       2423;
        matchTolerance  0.0001;
        transform       unknown;
        myProcNo        18;
        neighbProcNo    19;
    }
    procBoundary18to25
    {
        type            processor;
        inGroups        List<word> 1(processor);
        nFaces          9;
        startFace       2455;
        matchTolerance  0.0001;
        transform       unknown;
        myProcNo        18;
        neighbProcNo    25;
    }
    procBoundary18to26
    {
        type            processor;
        inGroups        List<word> 1(processor);
        nFaces          42;
        startFace       2464;
        matchTolerance  0.0001;
        transform       unknown;
        myProcNo        18;
        neighbProcNo    26;
    }
)

// ************************************************************************* //
