/*--------------------------------*- C++ -*----------------------------------*\
  =========                 |
  \\      /  F ield         | OpenFOAM: The Open Source CFD Toolbox
   \\    /   O peration     | Website:  https://openfoam.org
    \\  /    A nd           | Version:  7
     \\/     M anipulation  |
\*---------------------------------------------------------------------------*/
FoamFile
{
    version     2.0;
    format      ascii;
    class       polyBoundaryMesh;
    location    "constant/polyMesh";
    object      boundary;
}
// * * * * * * * * * * * * * * * * * * * * * * * * * * * * * * * * * * * * * //

14
(
    inlet
    {
        type            patch;
        nFaces          0;
        startFace       690;
    }
    outlet
    {
        type            patch;
        nFaces          0;
        startFace       690;
    }
    cylinder
    {
        type            wall;
        inGroups        List<word> 1(wall);
        nFaces          0;
        startFace       690;
    }
    top
    {
        type            symmetryPlane;
        inGroups        List<word> 1(symmetryPlane);
        nFaces          0;
        startFace       690;
    }
    bottom
    {
        type            symmetryPlane;
        inGroups        List<word> 1(symmetryPlane);
        nFaces          0;
        startFace       690;
    }
    defaultFaces
    {
        type            empty;
        inGroups        List<word> 1(empty);
        nFaces          770;
        startFace       690;
    }
    procBoundary29to20
    {
        type            processor;
        inGroups        List<word> 1(processor);
        nFaces          10;
        startFace       1460;
        matchTolerance  0.0001;
        transform       unknown;
        myProcNo        29;
        neighbProcNo    20;
    }
    procBoundary29to21
    {
        type            processor;
        inGroups        List<word> 1(processor);
        nFaces          16;
        startFace       1470;
        matchTolerance  0.0001;
        transform       unknown;
        myProcNo        29;
        neighbProcNo    21;
    }
    procBoundary29to22
    {
        type            processor;
        inGroups        List<word> 1(processor);
        nFaces          16;
        startFace       1486;
        matchTolerance  0.0001;
        transform       unknown;
        myProcNo        29;
        neighbProcNo    22;
    }
    procBoundary29to28
    {
        type            processor;
        inGroups        List<word> 1(processor);
        nFaces          40;
        startFace       1502;
        matchTolerance  0.0001;
        transform       unknown;
        myProcNo        29;
        neighbProcNo    28;
    }
    procBoundary29to30
    {
        type            processor;
        inGroups        List<word> 1(processor);
        nFaces          20;
        startFace       1542;
        matchTolerance  0.0001;
        transform       unknown;
        myProcNo        29;
        neighbProcNo    30;
    }
    procBoundary29to36
    {
        type            processor;
        inGroups        List<word> 1(processor);
        nFaces          13;
        startFace       1562;
        matchTolerance  0.0001;
        transform       unknown;
        myProcNo        29;
        neighbProcNo    36;
    }
    procBoundary29to37
    {
        type            processor;
        inGroups        List<word> 1(processor);
        nFaces          18;
        startFace       1575;
        matchTolerance  0.0001;
        transform       unknown;
        myProcNo        29;
        neighbProcNo    37;
    }
    procBoundary29to38
    {
        type            processor;
        inGroups        List<word> 1(processor);
        nFaces          27;
        startFace       1593;
        matchTolerance  0.0001;
        transform       unknown;
        myProcNo        29;
        neighbProcNo    38;
    }
)

// ************************************************************************* //
