/*--------------------------------*- C++ -*----------------------------------*\
  =========                 |
  \\      /  F ield         | OpenFOAM: The Open Source CFD Toolbox
   \\    /   O peration     | Website:  https://openfoam.org
    \\  /    A nd           | Version:  7
     \\/     M anipulation  |
\*---------------------------------------------------------------------------*/
FoamFile
{
    version     2.0;
    format      ascii;
    class       polyBoundaryMesh;
    location    "constant/polyMesh";
    object      boundary;
}
// * * * * * * * * * * * * * * * * * * * * * * * * * * * * * * * * * * * * * //

12
(
    inlet
    {
        type            patch;
        nFaces          0;
        startFace       4675;
    }
    outlet
    {
        type            patch;
        nFaces          0;
        startFace       4675;
    }
    bottom
    {
        type            symmetryPlane;
        inGroups        List<word> 1(symmetryPlane);
        nFaces          0;
        startFace       4675;
    }
    top
    {
        type            symmetryPlane;
        inGroups        List<word> 1(symmetryPlane);
        nFaces          0;
        startFace       4675;
    }
    obstacle
    {
        type            patch;
        nFaces          0;
        startFace       4675;
    }
    front
    {
        type            empty;
        inGroups        List<word> 1(empty);
        nFaces          2413;
        startFace       4675;
    }
    back
    {
        type            empty;
        inGroups        List<word> 1(empty);
        nFaces          2413;
        startFace       7088;
    }
    procBoundary41to33
    {
        type            processor;
        inGroups        List<word> 1(processor);
        nFaces          133;
        startFace       9501;
        matchTolerance  0.0001;
        transform       unknown;
        myProcNo        41;
        neighbProcNo    33;
    }
    procBoundary41to40
    {
        type            processor;
        inGroups        List<word> 1(processor);
        nFaces          17;
        startFace       9634;
        matchTolerance  0.0001;
        transform       unknown;
        myProcNo        41;
        neighbProcNo    40;
    }
    procBoundary41to42
    {
        type            processor;
        inGroups        List<word> 1(processor);
        nFaces          18;
        startFace       9651;
        matchTolerance  0.0001;
        transform       unknown;
        myProcNo        41;
        neighbProcNo    42;
    }
    procBoundary41to48
    {
        type            processor;
        inGroups        List<word> 1(processor);
        nFaces          1;
        startFace       9669;
        matchTolerance  0.0001;
        transform       unknown;
        myProcNo        41;
        neighbProcNo    48;
    }
    procBoundary41to49
    {
        type            processor;
        inGroups        List<word> 1(processor);
        nFaces          133;
        startFace       9670;
        matchTolerance  0.0001;
        transform       unknown;
        myProcNo        41;
        neighbProcNo    49;
    }
)

// ************************************************************************* //
