/*--------------------------------*- C++ -*----------------------------------*\
  =========                 |
  \\      /  F ield         | OpenFOAM: The Open Source CFD Toolbox
   \\    /   O peration     | Website:  https://openfoam.org
    \\  /    A nd           | Version:  7
     \\/     M anipulation  |
\*---------------------------------------------------------------------------*/
FoamFile
{
    version     2.0;
    format      ascii;
    class       polyBoundaryMesh;
    location    "constant/polyMesh";
    object      boundary;
}
// * * * * * * * * * * * * * * * * * * * * * * * * * * * * * * * * * * * * * //

11
(
    inlet
    {
        type            patch;
        nFaces          0;
        startFace       4720;
    }
    outlet
    {
        type            patch;
        nFaces          0;
        startFace       4720;
    }
    bottom
    {
        type            symmetryPlane;
        inGroups        List<word> 1(symmetryPlane);
        nFaces          0;
        startFace       4720;
    }
    top
    {
        type            symmetryPlane;
        inGroups        List<word> 1(symmetryPlane);
        nFaces          88;
        startFace       4720;
    }
    obstacle
    {
        type            patch;
        nFaces          0;
        startFace       4808;
    }
    front
    {
        type            empty;
        inGroups        List<word> 1(empty);
        nFaces          2418;
        startFace       4808;
    }
    back
    {
        type            empty;
        inGroups        List<word> 1(empty);
        nFaces          2418;
        startFace       7226;
    }
    procBoundary52to44
    {
        type            processor;
        inGroups        List<word> 1(processor);
        nFaces          89;
        startFace       9644;
        matchTolerance  0.0001;
        transform       unknown;
        myProcNo        52;
        neighbProcNo    44;
    }
    procBoundary52to45
    {
        type            processor;
        inGroups        List<word> 1(processor);
        nFaces          10;
        startFace       9733;
        matchTolerance  0.0001;
        transform       unknown;
        myProcNo        52;
        neighbProcNo    45;
    }
    procBoundary52to51
    {
        type            processor;
        inGroups        List<word> 1(processor);
        nFaces          27;
        startFace       9743;
        matchTolerance  0.0001;
        transform       unknown;
        myProcNo        52;
        neighbProcNo    51;
    }
    procBoundary52to53
    {
        type            processor;
        inGroups        List<word> 1(processor);
        nFaces          18;
        startFace       9770;
        matchTolerance  0.0001;
        transform       unknown;
        myProcNo        52;
        neighbProcNo    53;
    }
)

// ************************************************************************* //
