/*--------------------------------*- C++ -*----------------------------------*\
  =========                 |
  \\      /  F ield         | OpenFOAM: The Open Source CFD Toolbox
   \\    /   O peration     | Website:  https://openfoam.org
    \\  /    A nd           | Version:  7
     \\/     M anipulation  |
\*---------------------------------------------------------------------------*/
FoamFile
{
    version     2.0;
    format      ascii;
    class       polyBoundaryMesh;
    location    "constant/polyMesh";
    object      boundary;
}
// * * * * * * * * * * * * * * * * * * * * * * * * * * * * * * * * * * * * * //

12
(
    inlet
    {
        type            patch;
        nFaces          0;
        startFace       4678;
    }
    outlet
    {
        type            patch;
        nFaces          0;
        startFace       4678;
    }
    bottom
    {
        type            symmetryPlane;
        inGroups        List<word> 1(symmetryPlane);
        nFaces          0;
        startFace       4678;
    }
    top
    {
        type            symmetryPlane;
        inGroups        List<word> 1(symmetryPlane);
        nFaces          0;
        startFace       4678;
    }
    obstacle
    {
        type            patch;
        nFaces          0;
        startFace       4678;
    }
    front
    {
        type            empty;
        inGroups        List<word> 1(empty);
        nFaces          2413;
        startFace       4678;
    }
    back
    {
        type            empty;
        inGroups        List<word> 1(empty);
        nFaces          2413;
        startFace       7091;
    }
    procBoundary29to21
    {
        type            processor;
        inGroups        List<word> 1(processor);
        nFaces          129;
        startFace       9504;
        matchTolerance  0.0001;
        transform       unknown;
        myProcNo        29;
        neighbProcNo    21;
    }
    procBoundary29to22
    {
        type            processor;
        inGroups        List<word> 1(processor);
        nFaces          3;
        startFace       9633;
        matchTolerance  0.0001;
        transform       unknown;
        myProcNo        29;
        neighbProcNo    22;
    }
    procBoundary29to30
    {
        type            processor;
        inGroups        List<word> 1(processor);
        nFaces          16;
        startFace       9636;
        matchTolerance  0.0001;
        transform       unknown;
        myProcNo        29;
        neighbProcNo    30;
    }
    procBoundary29to36
    {
        type            processor;
        inGroups        List<word> 1(processor);
        nFaces          19;
        startFace       9652;
        matchTolerance  0.0001;
        transform       unknown;
        myProcNo        29;
        neighbProcNo    36;
    }
    procBoundary29to37
    {
        type            processor;
        inGroups        List<word> 1(processor);
        nFaces          129;
        startFace       9671;
        matchTolerance  0.0001;
        transform       unknown;
        myProcNo        29;
        neighbProcNo    37;
    }
)

// ************************************************************************* //
