/*--------------------------------*- C++ -*----------------------------------*\
  =========                 |
  \\      /  F ield         | OpenFOAM: The Open Source CFD Toolbox
   \\    /   O peration     | Website:  https://openfoam.org
    \\  /    A nd           | Version:  7
     \\/     M anipulation  |
\*---------------------------------------------------------------------------*/
FoamFile
{
    version     2.0;
    format      ascii;
    class       polyBoundaryMesh;
    location    "constant/polyMesh";
    object      boundary;
}
// * * * * * * * * * * * * * * * * * * * * * * * * * * * * * * * * * * * * * //

13
(
    inlet
    {
        type            patch;
        nFaces          0;
        startFace       715;
    }
    outlet
    {
        type            patch;
        nFaces          0;
        startFace       715;
    }
    cylinder
    {
        type            wall;
        inGroups        List<word> 1(wall);
        nFaces          0;
        startFace       715;
    }
    top
    {
        type            symmetryPlane;
        inGroups        List<word> 1(symmetryPlane);
        nFaces          0;
        startFace       715;
    }
    bottom
    {
        type            symmetryPlane;
        inGroups        List<word> 1(symmetryPlane);
        nFaces          0;
        startFace       715;
    }
    defaultFaces
    {
        type            empty;
        inGroups        List<word> 1(empty);
        nFaces          770;
        startFace       715;
    }
    procBoundary20to11
    {
        type            processor;
        inGroups        List<word> 1(processor);
        nFaces          18;
        startFace       1485;
        matchTolerance  0.0001;
        transform       unknown;
        myProcNo        20;
        neighbProcNo    11;
    }
    procBoundary20to12
    {
        type            processor;
        inGroups        List<word> 1(processor);
        nFaces          18;
        startFace       1503;
        matchTolerance  0.0001;
        transform       unknown;
        myProcNo        20;
        neighbProcNo    12;
    }
    procBoundary20to13
    {
        type            processor;
        inGroups        List<word> 1(processor);
        nFaces          1;
        startFace       1521;
        matchTolerance  0.0001;
        transform       unknown;
        myProcNo        20;
        neighbProcNo    13;
    }
    procBoundary20to19
    {
        type            processor;
        inGroups        List<word> 1(processor);
        nFaces          17;
        startFace       1522;
        matchTolerance  0.0001;
        transform       unknown;
        myProcNo        20;
        neighbProcNo    19;
    }
    procBoundary20to21
    {
        type            processor;
        inGroups        List<word> 1(processor);
        nFaces          24;
        startFace       1539;
        matchTolerance  0.0001;
        transform       unknown;
        myProcNo        20;
        neighbProcNo    21;
    }
    procBoundary20to28
    {
        type            processor;
        inGroups        List<word> 1(processor);
        nFaces          22;
        startFace       1563;
        matchTolerance  0.0001;
        transform       unknown;
        myProcNo        20;
        neighbProcNo    28;
    }
    procBoundary20to29
    {
        type            processor;
        inGroups        List<word> 1(processor);
        nFaces          10;
        startFace       1585;
        matchTolerance  0.0001;
        transform       unknown;
        myProcNo        20;
        neighbProcNo    29;
    }
)

// ************************************************************************* //
