/*--------------------------------*- C++ -*----------------------------------*\
  =========                 |
  \\      /  F ield         | OpenFOAM: The Open Source CFD Toolbox
   \\    /   O peration     | Website:  https://openfoam.org
    \\  /    A nd           | Version:  7
     \\/     M anipulation  |
\*---------------------------------------------------------------------------*/
FoamFile
{
    version     2.0;
    format      ascii;
    class       polyBoundaryMesh;
    location    "constant/polyMesh";
    object      boundary;
}
// * * * * * * * * * * * * * * * * * * * * * * * * * * * * * * * * * * * * * //

13
(
    inlet
    {
        type            patch;
        nFaces          0;
        startFace       4674;
    }
    outlet
    {
        type            patch;
        nFaces          0;
        startFace       4674;
    }
    bottom
    {
        type            symmetryPlane;
        inGroups        List<word> 1(symmetryPlane);
        nFaces          0;
        startFace       4674;
    }
    top
    {
        type            symmetryPlane;
        inGroups        List<word> 1(symmetryPlane);
        nFaces          0;
        startFace       4674;
    }
    obstacle
    {
        type            patch;
        nFaces          0;
        startFace       4674;
    }
    front
    {
        type            empty;
        inGroups        List<word> 1(empty);
        nFaces          2413;
        startFace       4674;
    }
    back
    {
        type            empty;
        inGroups        List<word> 1(empty);
        nFaces          2413;
        startFace       7087;
    }
    procBoundary25to17
    {
        type            processor;
        inGroups        List<word> 1(processor);
        nFaces          133;
        startFace       9500;
        matchTolerance  0.0001;
        transform       unknown;
        myProcNo        25;
        neighbProcNo    17;
    }
    procBoundary25to24
    {
        type            processor;
        inGroups        List<word> 1(processor);
        nFaces          18;
        startFace       9633;
        matchTolerance  0.0001;
        transform       unknown;
        myProcNo        25;
        neighbProcNo    24;
    }
    procBoundary25to26
    {
        type            processor;
        inGroups        List<word> 1(processor);
        nFaces          18;
        startFace       9651;
        matchTolerance  0.0001;
        transform       unknown;
        myProcNo        25;
        neighbProcNo    26;
    }
    procBoundary25to32
    {
        type            processor;
        inGroups        List<word> 1(processor);
        nFaces          1;
        startFace       9669;
        matchTolerance  0.0001;
        transform       unknown;
        myProcNo        25;
        neighbProcNo    32;
    }
    procBoundary25to33
    {
        type            processor;
        inGroups        List<word> 1(processor);
        nFaces          133;
        startFace       9670;
        matchTolerance  0.0001;
        transform       unknown;
        myProcNo        25;
        neighbProcNo    33;
    }
    procBoundary25to34
    {
        type            processor;
        inGroups        List<word> 1(processor);
        nFaces          1;
        startFace       9803;
        matchTolerance  0.0001;
        transform       unknown;
        myProcNo        25;
        neighbProcNo    34;
    }
)

// ************************************************************************* //
