/*--------------------------------*- C++ -*----------------------------------*\
  =========                 |
  \\      /  F ield         | OpenFOAM: The Open Source CFD Toolbox
   \\    /   O peration     | Website:  https://openfoam.org
    \\  /    A nd           | Version:  7
     \\/     M anipulation  |
\*---------------------------------------------------------------------------*/
FoamFile
{
    version     2.0;
    format      ascii;
    class       polyBoundaryMesh;
    location    "constant/polyMesh";
    object      boundary;
}
// * * * * * * * * * * * * * * * * * * * * * * * * * * * * * * * * * * * * * //

9
(
    inlet
    {
        type            patch;
        nFaces          0;
        startFace       1164;
    }
    outlet
    {
        type            patch;
        nFaces          28;
        startFace       1164;
    }
    cylinder
    {
        type            wall;
        inGroups        List<word> 1(wall);
        nFaces          0;
        startFace       1192;
    }
    top
    {
        type            symmetryPlane;
        inGroups        List<word> 1(symmetryPlane);
        nFaces          0;
        startFace       1192;
    }
    bottom
    {
        type            symmetryPlane;
        inGroups        List<word> 1(symmetryPlane);
        nFaces          0;
        startFace       1192;
    }
    defaultFaces
    {
        type            empty;
        inGroups        List<word> 1(empty);
        nFaces          1214;
        startFace       1192;
    }
    procBoundary31to23
    {
        type            processor;
        inGroups        List<word> 1(processor);
        nFaces          23;
        startFace       2406;
        matchTolerance  0.0001;
        transform       unknown;
        myProcNo        31;
        neighbProcNo    23;
    }
    procBoundary31to30
    {
        type            processor;
        inGroups        List<word> 1(processor);
        nFaces          26;
        startFace       2429;
        matchTolerance  0.0001;
        transform       unknown;
        myProcNo        31;
        neighbProcNo    30;
    }
    procBoundary31to39
    {
        type            processor;
        inGroups        List<word> 1(processor);
        nFaces          23;
        startFace       2455;
        matchTolerance  0.0001;
        transform       unknown;
        myProcNo        31;
        neighbProcNo    39;
    }
)

// ************************************************************************* //
