/*--------------------------------*- C++ -*----------------------------------*\
  =========                 |
  \\      /  F ield         | OpenFOAM: The Open Source CFD Toolbox
   \\    /   O peration     | Website:  https://openfoam.org
    \\  /    A nd           | Version:  7
     \\/     M anipulation  |
\*---------------------------------------------------------------------------*/
FoamFile
{
    version     2.0;
    format      ascii;
    class       polyBoundaryMesh;
    location    "constant/polyMesh";
    object      boundary;
}
// * * * * * * * * * * * * * * * * * * * * * * * * * * * * * * * * * * * * * //

12
(
    inlet
    {
        type            patch;
        nFaces          0;
        startFace       4618;
    }
    outlet
    {
        type            patch;
        nFaces          0;
        startFace       4618;
    }
    bottom
    {
        type            symmetryPlane;
        inGroups        List<word> 1(symmetryPlane);
        nFaces          8;
        startFace       4618;
    }
    top
    {
        type            symmetryPlane;
        inGroups        List<word> 1(symmetryPlane);
        nFaces          0;
        startFace       4626;
    }
    obstacle
    {
        type            patch;
        nFaces          185;
        startFace       4626;
    }
    front
    {
        type            empty;
        inGroups        List<word> 1(empty);
        nFaces          2413;
        startFace       4811;
    }
    back
    {
        type            empty;
        inGroups        List<word> 1(empty);
        nFaces          2413;
        startFace       7224;
    }
    procBoundary2to1
    {
        type            processor;
        inGroups        List<word> 1(processor);
        nFaces          16;
        startFace       9637;
        matchTolerance  0.0001;
        transform       unknown;
        myProcNo        2;
        neighbProcNo    1;
    }
    procBoundary2to3
    {
        type            processor;
        inGroups        List<word> 1(processor);
        nFaces          28;
        startFace       9653;
        matchTolerance  0.0001;
        transform       unknown;
        myProcNo        2;
        neighbProcNo    3;
    }
    procBoundary2to10
    {
        type            processor;
        inGroups        List<word> 1(processor);
        nFaces          129;
        startFace       9681;
        matchTolerance  0.0001;
        transform       unknown;
        myProcNo        2;
        neighbProcNo    10;
    }
    procBoundary2to11
    {
        type            processor;
        inGroups        List<word> 1(processor);
        nFaces          27;
        startFace       9810;
        matchTolerance  0.0001;
        transform       unknown;
        myProcNo        2;
        neighbProcNo    11;
    }
    procBoundary2to19
    {
        type            processor;
        inGroups        List<word> 1(processor);
        nFaces          23;
        startFace       9837;
        matchTolerance  0.0001;
        transform       unknown;
        myProcNo        2;
        neighbProcNo    19;
    }
)

// ************************************************************************* //
