/*--------------------------------*- C++ -*----------------------------------*\
  =========                 |
  \\      /  F ield         | OpenFOAM: The Open Source CFD Toolbox
   \\    /   O peration     | Website:  https://openfoam.org
    \\  /    A nd           | Version:  7
     \\/     M anipulation  |
\*---------------------------------------------------------------------------*/
FoamFile
{
    version     2.0;
    format      ascii;
    class       polyBoundaryMesh;
    location    "constant/polyMesh";
    object      boundary;
}
// * * * * * * * * * * * * * * * * * * * * * * * * * * * * * * * * * * * * * //

13
(
    inlet
    {
        type            patch;
        nFaces          0;
        startFace       4678;
    }
    outlet
    {
        type            patch;
        nFaces          0;
        startFace       4678;
    }
    bottom
    {
        type            symmetryPlane;
        inGroups        List<word> 1(symmetryPlane);
        nFaces          0;
        startFace       4678;
    }
    top
    {
        type            symmetryPlane;
        inGroups        List<word> 1(symmetryPlane);
        nFaces          0;
        startFace       4678;
    }
    obstacle
    {
        type            patch;
        nFaces          0;
        startFace       4678;
    }
    front
    {
        type            empty;
        inGroups        List<word> 1(empty);
        nFaces          2413;
        startFace       4678;
    }
    back
    {
        type            empty;
        inGroups        List<word> 1(empty);
        nFaces          2413;
        startFace       7091;
    }
    procBoundary45to37
    {
        type            processor;
        inGroups        List<word> 1(processor);
        nFaces          129;
        startFace       9504;
        matchTolerance  0.0001;
        transform       unknown;
        myProcNo        45;
        neighbProcNo    37;
    }
    procBoundary45to38
    {
        type            processor;
        inGroups        List<word> 1(processor);
        nFaces          2;
        startFace       9633;
        matchTolerance  0.0001;
        transform       unknown;
        myProcNo        45;
        neighbProcNo    38;
    }
    procBoundary45to44
    {
        type            processor;
        inGroups        List<word> 1(processor);
        nFaces          9;
        startFace       9635;
        matchTolerance  0.0001;
        transform       unknown;
        myProcNo        45;
        neighbProcNo    44;
    }
    procBoundary45to46
    {
        type            processor;
        inGroups        List<word> 1(processor);
        nFaces          17;
        startFace       9644;
        matchTolerance  0.0001;
        transform       unknown;
        myProcNo        45;
        neighbProcNo    46;
    }
    procBoundary45to52
    {
        type            processor;
        inGroups        List<word> 1(processor);
        nFaces          10;
        startFace       9661;
        matchTolerance  0.0001;
        transform       unknown;
        myProcNo        45;
        neighbProcNo    52;
    }
    procBoundary45to53
    {
        type            processor;
        inGroups        List<word> 1(processor);
        nFaces          129;
        startFace       9671;
        matchTolerance  0.0001;
        transform       unknown;
        myProcNo        45;
        neighbProcNo    53;
    }
)

// ************************************************************************* //
