/*--------------------------------*- C++ -*----------------------------------*\
  =========                 |
  \\      /  F ield         | OpenFOAM: The Open Source CFD Toolbox
   \\    /   O peration     | Website:  https://openfoam.org
    \\  /    A nd           | Version:  7
     \\/     M anipulation  |
\*---------------------------------------------------------------------------*/
FoamFile
{
    version     2.0;
    format      ascii;
    class       polyBoundaryMesh;
    location    "constant/polyMesh";
    object      boundary;
}
// * * * * * * * * * * * * * * * * * * * * * * * * * * * * * * * * * * * * * //

12
(
    inlet
    {
        type            patch;
        nFaces          0;
        startFace       4678;
    }
    outlet
    {
        type            patch;
        nFaces          0;
        startFace       4678;
    }
    bottom
    {
        type            symmetryPlane;
        inGroups        List<word> 1(symmetryPlane);
        nFaces          0;
        startFace       4678;
    }
    top
    {
        type            symmetryPlane;
        inGroups        List<word> 1(symmetryPlane);
        nFaces          0;
        startFace       4678;
    }
    obstacle
    {
        type            patch;
        nFaces          0;
        startFace       4678;
    }
    front
    {
        type            empty;
        inGroups        List<word> 1(empty);
        nFaces          2413;
        startFace       4678;
    }
    back
    {
        type            empty;
        inGroups        List<word> 1(empty);
        nFaces          2413;
        startFace       7091;
    }
    procBoundary26to17
    {
        type            processor;
        inGroups        List<word> 1(processor);
        nFaces          1;
        startFace       9504;
        matchTolerance  0.0001;
        transform       unknown;
        myProcNo        26;
        neighbProcNo    17;
    }
    procBoundary26to18
    {
        type            processor;
        inGroups        List<word> 1(processor);
        nFaces          129;
        startFace       9505;
        matchTolerance  0.0001;
        transform       unknown;
        myProcNo        26;
        neighbProcNo    18;
    }
    procBoundary26to25
    {
        type            processor;
        inGroups        List<word> 1(processor);
        nFaces          18;
        startFace       9634;
        matchTolerance  0.0001;
        transform       unknown;
        myProcNo        26;
        neighbProcNo    25;
    }
    procBoundary26to34
    {
        type            processor;
        inGroups        List<word> 1(processor);
        nFaces          129;
        startFace       9652;
        matchTolerance  0.0001;
        transform       unknown;
        myProcNo        26;
        neighbProcNo    34;
    }
    procBoundary26to35
    {
        type            processor;
        inGroups        List<word> 1(processor);
        nFaces          19;
        startFace       9781;
        matchTolerance  0.0001;
        transform       unknown;
        myProcNo        26;
        neighbProcNo    35;
    }
)

// ************************************************************************* //
