/*--------------------------------*- C++ -*----------------------------------*\
  =========                 |
  \\      /  F ield         | OpenFOAM: The Open Source CFD Toolbox
   \\    /   O peration     | Website:  https://openfoam.org
    \\  /    A nd           | Version:  7
     \\/     M anipulation  |
\*---------------------------------------------------------------------------*/
FoamFile
{
    version     2.0;
    format      ascii;
    class       polyBoundaryMesh;
    location    "constant/polyMesh";
    object      boundary;
}
// * * * * * * * * * * * * * * * * * * * * * * * * * * * * * * * * * * * * * //

13
(
    inlet
    {
        type            patch;
        nFaces          0;
        startFace       4678;
    }
    outlet
    {
        type            patch;
        nFaces          0;
        startFace       4678;
    }
    bottom
    {
        type            symmetryPlane;
        inGroups        List<word> 1(symmetryPlane);
        nFaces          0;
        startFace       4678;
    }
    top
    {
        type            symmetryPlane;
        inGroups        List<word> 1(symmetryPlane);
        nFaces          0;
        startFace       4678;
    }
    obstacle
    {
        type            patch;
        nFaces          0;
        startFace       4678;
    }
    front
    {
        type            empty;
        inGroups        List<word> 1(empty);
        nFaces          2413;
        startFace       4678;
    }
    back
    {
        type            empty;
        inGroups        List<word> 1(empty);
        nFaces          2413;
        startFace       7091;
    }
    procBoundary37to29
    {
        type            processor;
        inGroups        List<word> 1(processor);
        nFaces          129;
        startFace       9504;
        matchTolerance  0.0001;
        transform       unknown;
        myProcNo        37;
        neighbProcNo    29;
    }
    procBoundary37to30
    {
        type            processor;
        inGroups        List<word> 1(processor);
        nFaces          3;
        startFace       9633;
        matchTolerance  0.0001;
        transform       unknown;
        myProcNo        37;
        neighbProcNo    30;
    }
    procBoundary37to36
    {
        type            processor;
        inGroups        List<word> 1(processor);
        nFaces          1;
        startFace       9636;
        matchTolerance  0.0001;
        transform       unknown;
        myProcNo        37;
        neighbProcNo    36;
    }
    procBoundary37to38
    {
        type            processor;
        inGroups        List<word> 1(processor);
        nFaces          16;
        startFace       9637;
        matchTolerance  0.0001;
        transform       unknown;
        myProcNo        37;
        neighbProcNo    38;
    }
    procBoundary37to44
    {
        type            processor;
        inGroups        List<word> 1(processor);
        nFaces          18;
        startFace       9653;
        matchTolerance  0.0001;
        transform       unknown;
        myProcNo        37;
        neighbProcNo    44;
    }
    procBoundary37to45
    {
        type            processor;
        inGroups        List<word> 1(processor);
        nFaces          129;
        startFace       9671;
        matchTolerance  0.0001;
        transform       unknown;
        myProcNo        37;
        neighbProcNo    45;
    }
)

// ************************************************************************* //
