/*--------------------------------*- C++ -*----------------------------------*\
  =========                 |
  \\      /  F ield         | OpenFOAM: The Open Source CFD Toolbox
   \\    /   O peration     | Website:  https://openfoam.org
    \\  /    A nd           | Version:  7
     \\/     M anipulation  |
\*---------------------------------------------------------------------------*/
FoamFile
{
    version     2.0;
    format      ascii;
    class       polyBoundaryMesh;
    location    "constant/polyMesh";
    object      boundary;
}
// * * * * * * * * * * * * * * * * * * * * * * * * * * * * * * * * * * * * * //

12
(
    inlet
    {
        type            patch;
        nFaces          0;
        startFace       1150;
    }
    outlet
    {
        type            patch;
        nFaces          0;
        startFace       1150;
    }
    cylinder
    {
        type            wall;
        inGroups        List<word> 1(wall);
        nFaces          0;
        startFace       1150;
    }
    top
    {
        type            symmetryPlane;
        inGroups        List<word> 1(symmetryPlane);
        nFaces          0;
        startFace       1150;
    }
    bottom
    {
        type            symmetryPlane;
        inGroups        List<word> 1(symmetryPlane);
        nFaces          0;
        startFace       1150;
    }
    defaultFaces
    {
        type            empty;
        inGroups        List<word> 1(empty);
        nFaces          1214;
        startFace       1150;
    }
    procBoundary43to34
    {
        type            processor;
        inGroups        List<word> 1(processor);
        nFaces          10;
        startFace       2364;
        matchTolerance  0.0001;
        transform       unknown;
        myProcNo        43;
        neighbProcNo    34;
    }
    procBoundary43to35
    {
        type            processor;
        inGroups        List<word> 1(processor);
        nFaces          29;
        startFace       2374;
        matchTolerance  0.0001;
        transform       unknown;
        myProcNo        43;
        neighbProcNo    35;
    }
    procBoundary43to36
    {
        type            processor;
        inGroups        List<word> 1(processor);
        nFaces          23;
        startFace       2403;
        matchTolerance  0.0001;
        transform       unknown;
        myProcNo        43;
        neighbProcNo    36;
    }
    procBoundary43to42
    {
        type            processor;
        inGroups        List<word> 1(processor);
        nFaces          27;
        startFace       2426;
        matchTolerance  0.0001;
        transform       unknown;
        myProcNo        43;
        neighbProcNo    42;
    }
    procBoundary43to44
    {
        type            processor;
        inGroups        List<word> 1(processor);
        nFaces          19;
        startFace       2453;
        matchTolerance  0.0001;
        transform       unknown;
        myProcNo        43;
        neighbProcNo    44;
    }
    procBoundary43to51
    {
        type            processor;
        inGroups        List<word> 1(processor);
        nFaces          20;
        startFace       2472;
        matchTolerance  0.0001;
        transform       unknown;
        myProcNo        43;
        neighbProcNo    51;
    }
)

// ************************************************************************* //
