/*--------------------------------*- C++ -*----------------------------------*\
  =========                 |
  \\      /  F ield         | OpenFOAM: The Open Source CFD Toolbox
   \\    /   O peration     | Website:  https://openfoam.org
    \\  /    A nd           | Version:  7
     \\/     M anipulation  |
\*---------------------------------------------------------------------------*/
FoamFile
{
    version     2.0;
    format      ascii;
    class       polyBoundaryMesh;
    location    "constant/polyMesh";
    object      boundary;
}
// * * * * * * * * * * * * * * * * * * * * * * * * * * * * * * * * * * * * * //

10
(
    inlet
    {
        type            patch;
        nFaces          0;
        startFace       1163;
    }
    outlet
    {
        type            patch;
        nFaces          29;
        startFace       1163;
    }
    cylinder
    {
        type            wall;
        inGroups        List<word> 1(wall);
        nFaces          0;
        startFace       1192;
    }
    top
    {
        type            symmetryPlane;
        inGroups        List<word> 1(symmetryPlane);
        nFaces          0;
        startFace       1192;
    }
    bottom
    {
        type            symmetryPlane;
        inGroups        List<word> 1(symmetryPlane);
        nFaces          0;
        startFace       1192;
    }
    defaultFaces
    {
        type            empty;
        inGroups        List<word> 1(empty);
        nFaces          1214;
        startFace       1192;
    }
    procBoundary47to39
    {
        type            processor;
        inGroups        List<word> 1(processor);
        nFaces          22;
        startFace       2406;
        matchTolerance  0.0001;
        transform       unknown;
        myProcNo        47;
        neighbProcNo    39;
    }
    procBoundary47to46
    {
        type            processor;
        inGroups        List<word> 1(processor);
        nFaces          26;
        startFace       2428;
        matchTolerance  0.0001;
        transform       unknown;
        myProcNo        47;
        neighbProcNo    46;
    }
    procBoundary47to54
    {
        type            processor;
        inGroups        List<word> 1(processor);
        nFaces          3;
        startFace       2454;
        matchTolerance  0.0001;
        transform       unknown;
        myProcNo        47;
        neighbProcNo    54;
    }
    procBoundary47to55
    {
        type            processor;
        inGroups        List<word> 1(processor);
        nFaces          22;
        startFace       2457;
        matchTolerance  0.0001;
        transform       unknown;
        myProcNo        47;
        neighbProcNo    55;
    }
)

// ************************************************************************* //
