/*--------------------------------*- C++ -*----------------------------------*\
  =========                 |
  \\      /  F ield         | OpenFOAM: The Open Source CFD Toolbox
   \\    /   O peration     | Website:  https://openfoam.org
    \\  /    A nd           | Version:  7
     \\/     M anipulation  |
\*---------------------------------------------------------------------------*/
FoamFile
{
    version     2.0;
    format      ascii;
    class       polyBoundaryMesh;
    location    "constant/polyMesh";
    object      boundary;
}
// * * * * * * * * * * * * * * * * * * * * * * * * * * * * * * * * * * * * * //

12
(
    inlet
    {
        type            patch;
        nFaces          0;
        startFace       722;
    }
    outlet
    {
        type            patch;
        nFaces          0;
        startFace       722;
    }
    cylinder
    {
        type            wall;
        inGroups        List<word> 1(wall);
        nFaces          0;
        startFace       722;
    }
    top
    {
        type            symmetryPlane;
        inGroups        List<word> 1(symmetryPlane);
        nFaces          0;
        startFace       722;
    }
    bottom
    {
        type            symmetryPlane;
        inGroups        List<word> 1(symmetryPlane);
        nFaces          0;
        startFace       722;
    }
    defaultFaces
    {
        type            empty;
        inGroups        List<word> 1(empty);
        nFaces          770;
        startFace       722;
    }
    procBoundary11to3
    {
        type            processor;
        inGroups        List<word> 1(processor);
        nFaces          13;
        startFace       1492;
        matchTolerance  0.0001;
        transform       unknown;
        myProcNo        11;
        neighbProcNo    3;
    }
    procBoundary11to10
    {
        type            processor;
        inGroups        List<word> 1(processor);
        nFaces          20;
        startFace       1505;
        matchTolerance  0.0001;
        transform       unknown;
        myProcNo        11;
        neighbProcNo    10;
    }
    procBoundary11to12
    {
        type            processor;
        inGroups        List<word> 1(processor);
        nFaces          16;
        startFace       1525;
        matchTolerance  0.0001;
        transform       unknown;
        myProcNo        11;
        neighbProcNo    12;
    }
    procBoundary11to18
    {
        type            processor;
        inGroups        List<word> 1(processor);
        nFaces          12;
        startFace       1541;
        matchTolerance  0.0001;
        transform       unknown;
        myProcNo        11;
        neighbProcNo    18;
    }
    procBoundary11to19
    {
        type            processor;
        inGroups        List<word> 1(processor);
        nFaces          17;
        startFace       1553;
        matchTolerance  0.0001;
        transform       unknown;
        myProcNo        11;
        neighbProcNo    19;
    }
    procBoundary11to20
    {
        type            processor;
        inGroups        List<word> 1(processor);
        nFaces          18;
        startFace       1570;
        matchTolerance  0.0001;
        transform       unknown;
        myProcNo        11;
        neighbProcNo    20;
    }
)

// ************************************************************************* //
