/*--------------------------------*- C++ -*----------------------------------*\
  =========                 |
  \\      /  F ield         | OpenFOAM: The Open Source CFD Toolbox
   \\    /   O peration     | Website:  https://openfoam.org
    \\  /    A nd           | Version:  7
     \\/     M anipulation  |
\*---------------------------------------------------------------------------*/
FoamFile
{
    version     2.0;
    format      ascii;
    class       polyBoundaryMesh;
    location    "constant/polyMesh";
    object      boundary;
}
// * * * * * * * * * * * * * * * * * * * * * * * * * * * * * * * * * * * * * //

11
(
    inlet
    {
        type            patch;
        nFaces          0;
        startFace       737;
    }
    outlet
    {
        type            patch;
        nFaces          0;
        startFace       737;
    }
    cylinder
    {
        type            wall;
        inGroups        List<word> 1(wall);
        nFaces          0;
        startFace       737;
    }
    top
    {
        type            symmetryPlane;
        inGroups        List<word> 1(symmetryPlane);
        nFaces          13;
        startFace       737;
    }
    bottom
    {
        type            symmetryPlane;
        inGroups        List<word> 1(symmetryPlane);
        nFaces          0;
        startFace       750;
    }
    defaultFaces
    {
        type            empty;
        inGroups        List<word> 1(empty);
        nFaces          780;
        startFace       750;
    }
    procBoundary54to45
    {
        type            processor;
        inGroups        List<word> 1(processor);
        nFaces          8;
        startFace       1530;
        matchTolerance  0.0001;
        transform       unknown;
        myProcNo        54;
        neighbProcNo    45;
    }
    procBoundary54to46
    {
        type            processor;
        inGroups        List<word> 1(processor);
        nFaces          13;
        startFace       1538;
        matchTolerance  0.0001;
        transform       unknown;
        myProcNo        54;
        neighbProcNo    46;
    }
    procBoundary54to47
    {
        type            processor;
        inGroups        List<word> 1(processor);
        nFaces          3;
        startFace       1551;
        matchTolerance  0.0001;
        transform       unknown;
        myProcNo        54;
        neighbProcNo    47;
    }
    procBoundary54to53
    {
        type            processor;
        inGroups        List<word> 1(processor);
        nFaces          22;
        startFace       1554;
        matchTolerance  0.0001;
        transform       unknown;
        myProcNo        54;
        neighbProcNo    53;
    }
    procBoundary54to55
    {
        type            processor;
        inGroups        List<word> 1(processor);
        nFaces          27;
        startFace       1576;
        matchTolerance  0.0001;
        transform       unknown;
        myProcNo        54;
        neighbProcNo    55;
    }
)

// ************************************************************************* //
