/*--------------------------------*- C++ -*----------------------------------*\
  =========                 |
  \\      /  F ield         | OpenFOAM: The Open Source CFD Toolbox
   \\    /   O peration     | Website:  https://openfoam.org
    \\  /    A nd           | Version:  7
     \\/     M anipulation  |
\*---------------------------------------------------------------------------*/
FoamFile
{
    version     2.0;
    format      ascii;
    class       polyBoundaryMesh;
    location    "constant/polyMesh";
    object      boundary;
}
// * * * * * * * * * * * * * * * * * * * * * * * * * * * * * * * * * * * * * //

9
(
    inlet
    {
        type            patch;
        nFaces          29;
        startFace       1164;
    }
    outlet
    {
        type            patch;
        nFaces          0;
        startFace       1193;
    }
    cylinder
    {
        type            wall;
        inGroups        List<word> 1(wall);
        nFaces          0;
        startFace       1193;
    }
    top
    {
        type            symmetryPlane;
        inGroups        List<word> 1(symmetryPlane);
        nFaces          0;
        startFace       1193;
    }
    bottom
    {
        type            symmetryPlane;
        inGroups        List<word> 1(symmetryPlane);
        nFaces          21;
        startFace       1193;
    }
    defaultFaces
    {
        type            empty;
        inGroups        List<word> 1(empty);
        nFaces          1214;
        startFace       1214;
    }
    procBoundary0to1
    {
        type            processor;
        inGroups        List<word> 1(processor);
        nFaces          27;
        startFace       2428;
        matchTolerance  0.0001;
        transform       unknown;
        myProcNo        0;
        neighbProcNo    1;
    }
    procBoundary0to8
    {
        type            processor;
        inGroups        List<word> 1(processor);
        nFaces          22;
        startFace       2455;
        matchTolerance  0.0001;
        transform       unknown;
        myProcNo        0;
        neighbProcNo    8;
    }
    procBoundary0to9
    {
        type            processor;
        inGroups        List<word> 1(processor);
        nFaces          1;
        startFace       2477;
        matchTolerance  0.0001;
        transform       unknown;
        myProcNo        0;
        neighbProcNo    9;
    }
)

// ************************************************************************* //
