/*--------------------------------*- C++ -*----------------------------------*\
  =========                 |
  \\      /  F ield         | OpenFOAM: The Open Source CFD Toolbox
   \\    /   O peration     | Website:  https://openfoam.org
    \\  /    A nd           | Version:  7
     \\/     M anipulation  |
\*---------------------------------------------------------------------------*/
FoamFile
{
    version     2.0;
    format      ascii;
    class       polyBoundaryMesh;
    location    "constant/polyMesh";
    object      boundary;
}
// * * * * * * * * * * * * * * * * * * * * * * * * * * * * * * * * * * * * * //

9
(
    inlet
    {
        type            patch;
        nFaces          0;
        startFace       739;
    }
    outlet
    {
        type            patch;
        nFaces          0;
        startFace       739;
    }
    cylinder
    {
        type            wall;
        inGroups        List<word> 1(wall);
        nFaces          0;
        startFace       739;
    }
    top
    {
        type            symmetryPlane;
        inGroups        List<word> 1(symmetryPlane);
        nFaces          16;
        startFace       739;
    }
    bottom
    {
        type            symmetryPlane;
        inGroups        List<word> 1(symmetryPlane);
        nFaces          0;
        startFace       755;
    }
    defaultFaces
    {
        type            empty;
        inGroups        List<word> 1(empty);
        nFaces          780;
        startFace       755;
    }
    procBoundary49to41
    {
        type            processor;
        inGroups        List<word> 1(processor);
        nFaces          17;
        startFace       1535;
        matchTolerance  0.0001;
        transform       unknown;
        myProcNo        49;
        neighbProcNo    41;
    }
    procBoundary49to48
    {
        type            processor;
        inGroups        List<word> 1(processor);
        nFaces          24;
        startFace       1552;
        matchTolerance  0.0001;
        transform       unknown;
        myProcNo        49;
        neighbProcNo    48;
    }
    procBoundary49to50
    {
        type            processor;
        inGroups        List<word> 1(processor);
        nFaces          25;
        startFace       1576;
        matchTolerance  0.0001;
        transform       unknown;
        myProcNo        49;
        neighbProcNo    50;
    }
)

// ************************************************************************* //
