/*--------------------------------*- C++ -*----------------------------------*\
  =========                 |
  \\      /  F ield         | OpenFOAM: The Open Source CFD Toolbox
   \\    /   O peration     | Website:  https://openfoam.org
    \\  /    A nd           | Version:  7
     \\/     M anipulation  |
\*---------------------------------------------------------------------------*/
FoamFile
{
    version     2.0;
    format      ascii;
    class       polyBoundaryMesh;
    location    "constant/polyMesh";
    object      boundary;
}
// * * * * * * * * * * * * * * * * * * * * * * * * * * * * * * * * * * * * * //

10
(
    inlet
    {
        type            patch;
        nFaces          0;
        startFace       1166;
    }
    outlet
    {
        type            patch;
        nFaces          0;
        startFace       1166;
    }
    cylinder
    {
        type            wall;
        inGroups        List<word> 1(wall);
        nFaces          0;
        startFace       1166;
    }
    top
    {
        type            symmetryPlane;
        inGroups        List<word> 1(symmetryPlane);
        nFaces          21;
        startFace       1166;
    }
    bottom
    {
        type            symmetryPlane;
        inGroups        List<word> 1(symmetryPlane);
        nFaces          0;
        startFace       1187;
    }
    defaultFaces
    {
        type            empty;
        inGroups        List<word> 1(empty);
        nFaces          1216;
        startFace       1187;
    }
    procBoundary50to41
    {
        type            processor;
        inGroups        List<word> 1(processor);
        nFaces          3;
        startFace       2403;
        matchTolerance  0.0001;
        transform       unknown;
        myProcNo        50;
        neighbProcNo    41;
    }
    procBoundary50to42
    {
        type            processor;
        inGroups        List<word> 1(processor);
        nFaces          20;
        startFace       2406;
        matchTolerance  0.0001;
        transform       unknown;
        myProcNo        50;
        neighbProcNo    42;
    }
    procBoundary50to49
    {
        type            processor;
        inGroups        List<word> 1(processor);
        nFaces          27;
        startFace       2426;
        matchTolerance  0.0001;
        transform       unknown;
        myProcNo        50;
        neighbProcNo    49;
    }
    procBoundary50to51
    {
        type            processor;
        inGroups        List<word> 1(processor);
        nFaces          29;
        startFace       2453;
        matchTolerance  0.0001;
        transform       unknown;
        myProcNo        50;
        neighbProcNo    51;
    }
)

// ************************************************************************* //
