/*--------------------------------*- C++ -*----------------------------------*\
  =========                 |
  \\      /  F ield         | OpenFOAM: The Open Source CFD Toolbox
   \\    /   O peration     | Website:  https://openfoam.org
    \\  /    A nd           | Version:  7
     \\/     M anipulation  |
\*---------------------------------------------------------------------------*/
FoamFile
{
    version     2.0;
    format      ascii;
    class       polyBoundaryMesh;
    location    "constant/polyMesh";
    object      boundary;
}
// * * * * * * * * * * * * * * * * * * * * * * * * * * * * * * * * * * * * * //

11
(
    inlet
    {
        type            patch;
        nFaces          0;
        startFace       4685;
    }
    outlet
    {
        type            patch;
        nFaces          0;
        startFace       4685;
    }
    bottom
    {
        type            symmetryPlane;
        inGroups        List<word> 1(symmetryPlane);
        nFaces          0;
        startFace       4685;
    }
    top
    {
        type            symmetryPlane;
        inGroups        List<word> 1(symmetryPlane);
        nFaces          132;
        startFace       4685;
    }
    obstacle
    {
        type            patch;
        nFaces          0;
        startFace       4817;
    }
    front
    {
        type            empty;
        inGroups        List<word> 1(empty);
        nFaces          2418;
        startFace       4817;
    }
    back
    {
        type            empty;
        inGroups        List<word> 1(empty);
        nFaces          2418;
        startFace       7235;
    }
    procBoundary54to46
    {
        type            processor;
        inGroups        List<word> 1(processor);
        nFaces          133;
        startFace       9653;
        matchTolerance  0.0001;
        transform       unknown;
        myProcNo        54;
        neighbProcNo    46;
    }
    procBoundary54to47
    {
        type            processor;
        inGroups        List<word> 1(processor);
        nFaces          1;
        startFace       9786;
        matchTolerance  0.0001;
        transform       unknown;
        myProcNo        54;
        neighbProcNo    47;
    }
    procBoundary54to53
    {
        type            processor;
        inGroups        List<word> 1(processor);
        nFaces          18;
        startFace       9787;
        matchTolerance  0.0001;
        transform       unknown;
        myProcNo        54;
        neighbProcNo    53;
    }
    procBoundary54to55
    {
        type            processor;
        inGroups        List<word> 1(processor);
        nFaces          18;
        startFace       9805;
        matchTolerance  0.0001;
        transform       unknown;
        myProcNo        54;
        neighbProcNo    55;
    }
)

// ************************************************************************* //
