/*--------------------------------*- C++ -*----------------------------------*\
  =========                 |
  \\      /  F ield         | OpenFOAM: The Open Source CFD Toolbox
   \\    /   O peration     | Website:  https://openfoam.org
    \\  /    A nd           | Version:  7
     \\/     M anipulation  |
\*---------------------------------------------------------------------------*/
FoamFile
{
    version     2.0;
    format      ascii;
    class       polyBoundaryMesh;
    location    "constant/polyMesh";
    object      boundary;
}
// * * * * * * * * * * * * * * * * * * * * * * * * * * * * * * * * * * * * * //

12
(
    inlet
    {
        type            patch;
        nFaces          0;
        startFace       709;
    }
    outlet
    {
        type            patch;
        nFaces          0;
        startFace       709;
    }
    cylinder
    {
        type            wall;
        inGroups        List<word> 1(wall);
        nFaces          0;
        startFace       709;
    }
    top
    {
        type            symmetryPlane;
        inGroups        List<word> 1(symmetryPlane);
        nFaces          0;
        startFace       709;
    }
    bottom
    {
        type            symmetryPlane;
        inGroups        List<word> 1(symmetryPlane);
        nFaces          0;
        startFace       709;
    }
    defaultFaces
    {
        type            empty;
        inGroups        List<word> 1(empty);
        nFaces          770;
        startFace       709;
    }
    procBoundary34to25
    {
        type            processor;
        inGroups        List<word> 1(processor);
        nFaces          10;
        startFace       1479;
        matchTolerance  0.0001;
        transform       unknown;
        myProcNo        34;
        neighbProcNo    25;
    }
    procBoundary34to26
    {
        type            processor;
        inGroups        List<word> 1(processor);
        nFaces          28;
        startFace       1489;
        matchTolerance  0.0001;
        transform       unknown;
        myProcNo        34;
        neighbProcNo    26;
    }
    procBoundary34to33
    {
        type            processor;
        inGroups        List<word> 1(processor);
        nFaces          32;
        startFace       1517;
        matchTolerance  0.0001;
        transform       unknown;
        myProcNo        34;
        neighbProcNo    33;
    }
    procBoundary34to35
    {
        type            processor;
        inGroups        List<word> 1(processor);
        nFaces          28;
        startFace       1549;
        matchTolerance  0.0001;
        transform       unknown;
        myProcNo        34;
        neighbProcNo    35;
    }
    procBoundary34to42
    {
        type            processor;
        inGroups        List<word> 1(processor);
        nFaces          16;
        startFace       1577;
        matchTolerance  0.0001;
        transform       unknown;
        myProcNo        34;
        neighbProcNo    42;
    }
    procBoundary34to43
    {
        type            processor;
        inGroups        List<word> 1(processor);
        nFaces          8;
        startFace       1593;
        matchTolerance  0.0001;
        transform       unknown;
        myProcNo        34;
        neighbProcNo    43;
    }
)

// ************************************************************************* //
