/*--------------------------------*- C++ -*----------------------------------*\
  =========                 |
  \\      /  F ield         | OpenFOAM: The Open Source CFD Toolbox
   \\    /   O peration     | Website:  https://openfoam.org
    \\  /    A nd           | Version:  7
     \\/     M anipulation  |
\*---------------------------------------------------------------------------*/
FoamFile
{
    version     2.0;
    format      ascii;
    class       polyBoundaryMesh;
    location    "constant/polyMesh";
    object      boundary;
}
// * * * * * * * * * * * * * * * * * * * * * * * * * * * * * * * * * * * * * //

12
(
    inlet
    {
        type            patch;
        nFaces          0;
        startFace       1163;
    }
    outlet
    {
        type            patch;
        nFaces          0;
        startFace       1163;
    }
    cylinder
    {
        type            wall;
        inGroups        List<word> 1(wall);
        nFaces          0;
        startFace       1163;
    }
    top
    {
        type            symmetryPlane;
        inGroups        List<word> 1(symmetryPlane);
        nFaces          0;
        startFace       1163;
    }
    bottom
    {
        type            symmetryPlane;
        inGroups        List<word> 1(symmetryPlane);
        nFaces          0;
        startFace       1163;
    }
    defaultFaces
    {
        type            empty;
        inGroups        List<word> 1(empty);
        nFaces          1214;
        startFace       1163;
    }
    procBoundary44to36
    {
        type            processor;
        inGroups        List<word> 1(processor);
        nFaces          27;
        startFace       2377;
        matchTolerance  0.0001;
        transform       unknown;
        myProcNo        44;
        neighbProcNo    36;
    }
    procBoundary44to43
    {
        type            processor;
        inGroups        List<word> 1(processor);
        nFaces          19;
        startFace       2404;
        matchTolerance  0.0001;
        transform       unknown;
        myProcNo        44;
        neighbProcNo    43;
    }
    procBoundary44to45
    {
        type            processor;
        inGroups        List<word> 1(processor);
        nFaces          21;
        startFace       2423;
        matchTolerance  0.0001;
        transform       unknown;
        myProcNo        44;
        neighbProcNo    45;
    }
    procBoundary44to51
    {
        type            processor;
        inGroups        List<word> 1(processor);
        nFaces          7;
        startFace       2444;
        matchTolerance  0.0001;
        transform       unknown;
        myProcNo        44;
        neighbProcNo    51;
    }
    procBoundary44to52
    {
        type            processor;
        inGroups        List<word> 1(processor);
        nFaces          25;
        startFace       2451;
        matchTolerance  0.0001;
        transform       unknown;
        myProcNo        44;
        neighbProcNo    52;
    }
    procBoundary44to53
    {
        type            processor;
        inGroups        List<word> 1(processor);
        nFaces          3;
        startFace       2476;
        matchTolerance  0.0001;
        transform       unknown;
        myProcNo        44;
        neighbProcNo    53;
    }
)

// ************************************************************************* //
