/*--------------------------------*- C++ -*----------------------------------*\
  =========                 |
  \\      /  F ield         | OpenFOAM: The Open Source CFD Toolbox
   \\    /   O peration     | Website:  https://openfoam.org
    \\  /    A nd           | Version:  7
     \\/     M anipulation  |
\*---------------------------------------------------------------------------*/
FoamFile
{
    version     2.0;
    format      ascii;
    class       polyBoundaryMesh;
    location    "constant/polyMesh";
    object      boundary;
}
// * * * * * * * * * * * * * * * * * * * * * * * * * * * * * * * * * * * * * //

8
(
    inlet
    {
        type            patch;
        nFaces          0;
        startFace       738;
    }
    outlet
    {
        type            patch;
        nFaces          28;
        startFace       738;
    }
    cylinder
    {
        type            wall;
        inGroups        List<word> 1(wall);
        nFaces          0;
        startFace       766;
    }
    top
    {
        type            symmetryPlane;
        inGroups        List<word> 1(symmetryPlane);
        nFaces          14;
        startFace       766;
    }
    bottom
    {
        type            symmetryPlane;
        inGroups        List<word> 1(symmetryPlane);
        nFaces          0;
        startFace       780;
    }
    defaultFaces
    {
        type            empty;
        inGroups        List<word> 1(empty);
        nFaces          780;
        startFace       780;
    }
    procBoundary55to47
    {
        type            processor;
        inGroups        List<word> 1(processor);
        nFaces          15;
        startFace       1560;
        matchTolerance  0.0001;
        transform       unknown;
        myProcNo        55;
        neighbProcNo    47;
    }
    procBoundary55to54
    {
        type            processor;
        inGroups        List<word> 1(processor);
        nFaces          27;
        startFace       1575;
        matchTolerance  0.0001;
        transform       unknown;
        myProcNo        55;
        neighbProcNo    54;
    }
)

// ************************************************************************* //
