/*--------------------------------*- C++ -*----------------------------------*\
  =========                 |
  \\      /  F ield         | OpenFOAM: The Open Source CFD Toolbox
   \\    /   O peration     | Website:  https://openfoam.org
    \\  /    A nd           | Version:  7
     \\/     M anipulation  |
\*---------------------------------------------------------------------------*/
FoamFile
{
    version     2.0;
    format      ascii;
    class       polyBoundaryMesh;
    location    "constant/polyMesh";
    object      boundary;
}
// * * * * * * * * * * * * * * * * * * * * * * * * * * * * * * * * * * * * * //

10
(
    inlet
    {
        type            patch;
        nFaces          0;
        startFace       4674;
    }
    outlet
    {
        type            patch;
        nFaces          18;
        startFace       4674;
    }
    bottom
    {
        type            symmetryPlane;
        inGroups        List<word> 1(symmetryPlane);
        nFaces          0;
        startFace       4692;
    }
    top
    {
        type            symmetryPlane;
        inGroups        List<word> 1(symmetryPlane);
        nFaces          0;
        startFace       4692;
    }
    obstacle
    {
        type            patch;
        nFaces          133;
        startFace       4692;
    }
    front
    {
        type            empty;
        inGroups        List<word> 1(empty);
        nFaces          2413;
        startFace       4825;
    }
    back
    {
        type            empty;
        inGroups        List<word> 1(empty);
        nFaces          2413;
        startFace       7238;
    }
    procBoundary7to6
    {
        type            processor;
        inGroups        List<word> 1(processor);
        nFaces          19;
        startFace       9651;
        matchTolerance  0.0001;
        transform       unknown;
        myProcNo        7;
        neighbProcNo    6;
    }
    procBoundary7to14
    {
        type            processor;
        inGroups        List<word> 1(processor);
        nFaces          1;
        startFace       9670;
        matchTolerance  0.0001;
        transform       unknown;
        myProcNo        7;
        neighbProcNo    14;
    }
    procBoundary7to15
    {
        type            processor;
        inGroups        List<word> 1(processor);
        nFaces          133;
        startFace       9671;
        matchTolerance  0.0001;
        transform       unknown;
        myProcNo        7;
        neighbProcNo    15;
    }
)

// ************************************************************************* //
