/*--------------------------------*- C++ -*----------------------------------*\
  =========                 |
  \\      /  F ield         | OpenFOAM: The Open Source CFD Toolbox
   \\    /   O peration     | Website:  https://openfoam.org
    \\  /    A nd           | Version:  7
     \\/     M anipulation  |
\*---------------------------------------------------------------------------*/
FoamFile
{
    version     2.0;
    format      ascii;
    class       polyBoundaryMesh;
    location    "constant/polyMesh";
    object      boundary;
}
// * * * * * * * * * * * * * * * * * * * * * * * * * * * * * * * * * * * * * //

10
(
    inlet
    {
        type            patch;
        nFaces          0;
        startFace       1164;
    }
    outlet
    {
        type            patch;
        nFaces          0;
        startFace       1164;
    }
    cylinder
    {
        type            wall;
        inGroups        List<word> 1(wall);
        nFaces          0;
        startFace       1164;
    }
    top
    {
        type            symmetryPlane;
        inGroups        List<word> 1(symmetryPlane);
        nFaces          0;
        startFace       1164;
    }
    bottom
    {
        type            symmetryPlane;
        inGroups        List<word> 1(symmetryPlane);
        nFaces          21;
        startFace       1164;
    }
    defaultFaces
    {
        type            empty;
        inGroups        List<word> 1(empty);
        nFaces          1214;
        startFace       1185;
    }
    procBoundary5to4
    {
        type            processor;
        inGroups        List<word> 1(processor);
        nFaces          24;
        startFace       2399;
        matchTolerance  0.0001;
        transform       unknown;
        myProcNo        5;
        neighbProcNo    4;
    }
    procBoundary5to6
    {
        type            processor;
        inGroups        List<word> 1(processor);
        nFaces          28;
        startFace       2423;
        matchTolerance  0.0001;
        transform       unknown;
        myProcNo        5;
        neighbProcNo    6;
    }
    procBoundary5to12
    {
        type            processor;
        inGroups        List<word> 1(processor);
        nFaces          5;
        startFace       2451;
        matchTolerance  0.0001;
        transform       unknown;
        myProcNo        5;
        neighbProcNo    12;
    }
    procBoundary5to13
    {
        type            processor;
        inGroups        List<word> 1(processor);
        nFaces          22;
        startFace       2456;
        matchTolerance  0.0001;
        transform       unknown;
        myProcNo        5;
        neighbProcNo    13;
    }
)

// ************************************************************************* //
