/*--------------------------------*- C++ -*----------------------------------*\
  =========                 |
  \\      /  F ield         | OpenFOAM: The Open Source CFD Toolbox
   \\    /   O peration     | Website:  https://openfoam.org
    \\  /    A nd           | Version:  7
     \\/     M anipulation  |
\*---------------------------------------------------------------------------*/
FoamFile
{
    version     2.0;
    format      ascii;
    class       polyBoundaryMesh;
    location    "constant/polyMesh";
    object      boundary;
}
// * * * * * * * * * * * * * * * * * * * * * * * * * * * * * * * * * * * * * //

13
(
    inlet
    {
        type            patch;
        nFaces          0;
        startFace       4678;
    }
    outlet
    {
        type            patch;
        nFaces          0;
        startFace       4678;
    }
    bottom
    {
        type            symmetryPlane;
        inGroups        List<word> 1(symmetryPlane);
        nFaces          0;
        startFace       4678;
    }
    top
    {
        type            symmetryPlane;
        inGroups        List<word> 1(symmetryPlane);
        nFaces          0;
        startFace       4678;
    }
    obstacle
    {
        type            patch;
        nFaces          0;
        startFace       4678;
    }
    front
    {
        type            empty;
        inGroups        List<word> 1(empty);
        nFaces          2413;
        startFace       4678;
    }
    back
    {
        type            empty;
        inGroups        List<word> 1(empty);
        nFaces          2413;
        startFace       7091;
    }
    procBoundary21to13
    {
        type            processor;
        inGroups        List<word> 1(processor);
        nFaces          129;
        startFace       9504;
        matchTolerance  0.0001;
        transform       unknown;
        myProcNo        21;
        neighbProcNo    13;
    }
    procBoundary21to14
    {
        type            processor;
        inGroups        List<word> 1(processor);
        nFaces          4;
        startFace       9633;
        matchTolerance  0.0001;
        transform       unknown;
        myProcNo        21;
        neighbProcNo    14;
    }
    procBoundary21to22
    {
        type            processor;
        inGroups        List<word> 1(processor);
        nFaces          15;
        startFace       9637;
        matchTolerance  0.0001;
        transform       unknown;
        myProcNo        21;
        neighbProcNo    22;
    }
    procBoundary21to28
    {
        type            processor;
        inGroups        List<word> 1(processor);
        nFaces          11;
        startFace       9652;
        matchTolerance  0.0001;
        transform       unknown;
        myProcNo        21;
        neighbProcNo    28;
    }
    procBoundary21to29
    {
        type            processor;
        inGroups        List<word> 1(processor);
        nFaces          129;
        startFace       9663;
        matchTolerance  0.0001;
        transform       unknown;
        myProcNo        21;
        neighbProcNo    29;
    }
    procBoundary21to36
    {
        type            processor;
        inGroups        List<word> 1(processor);
        nFaces          8;
        startFace       9792;
        matchTolerance  0.0001;
        transform       unknown;
        myProcNo        21;
        neighbProcNo    36;
    }
)

// ************************************************************************* //
