/*--------------------------------*- C++ -*----------------------------------*\
  =========                 |
  \\      /  F ield         | OpenFOAM: The Open Source CFD Toolbox
   \\    /   O peration     | Website:  https://openfoam.org
    \\  /    A nd           | Version:  7
     \\/     M anipulation  |
\*---------------------------------------------------------------------------*/
FoamFile
{
    version     2.0;
    format      ascii;
    class       polyBoundaryMesh;
    location    "constant/polyMesh";
    object      boundary;
}
// * * * * * * * * * * * * * * * * * * * * * * * * * * * * * * * * * * * * * //

14
(
    inlet
    {
        type            patch;
        nFaces          0;
        startFace       1145;
    }
    outlet
    {
        type            patch;
        nFaces          0;
        startFace       1145;
    }
    cylinder
    {
        type            wall;
        inGroups        List<word> 1(wall);
        nFaces          0;
        startFace       1145;
    }
    top
    {
        type            symmetryPlane;
        inGroups        List<word> 1(symmetryPlane);
        nFaces          0;
        startFace       1145;
    }
    bottom
    {
        type            symmetryPlane;
        inGroups        List<word> 1(symmetryPlane);
        nFaces          0;
        startFace       1145;
    }
    defaultFaces
    {
        type            empty;
        inGroups        List<word> 1(empty);
        nFaces          1214;
        startFace       1145;
    }
    procBoundary25to16
    {
        type            processor;
        inGroups        List<word> 1(processor);
        nFaces          1;
        startFace       2359;
        matchTolerance  0.0001;
        transform       unknown;
        myProcNo        25;
        neighbProcNo    16;
    }
    procBoundary25to17
    {
        type            processor;
        inGroups        List<word> 1(processor);
        nFaces          28;
        startFace       2360;
        matchTolerance  0.0001;
        transform       unknown;
        myProcNo        25;
        neighbProcNo    17;
    }
    procBoundary25to18
    {
        type            processor;
        inGroups        List<word> 1(processor);
        nFaces          9;
        startFace       2388;
        matchTolerance  0.0001;
        transform       unknown;
        myProcNo        25;
        neighbProcNo    18;
    }
    procBoundary25to24
    {
        type            processor;
        inGroups        List<word> 1(processor);
        nFaces          26;
        startFace       2397;
        matchTolerance  0.0001;
        transform       unknown;
        myProcNo        25;
        neighbProcNo    24;
    }
    procBoundary25to26
    {
        type            processor;
        inGroups        List<word> 1(processor);
        nFaces          33;
        startFace       2423;
        matchTolerance  0.0001;
        transform       unknown;
        myProcNo        25;
        neighbProcNo    26;
    }
    procBoundary25to32
    {
        type            processor;
        inGroups        List<word> 1(processor);
        nFaces          2;
        startFace       2456;
        matchTolerance  0.0001;
        transform       unknown;
        myProcNo        25;
        neighbProcNo    32;
    }
    procBoundary25to33
    {
        type            processor;
        inGroups        List<word> 1(processor);
        nFaces          27;
        startFace       2458;
        matchTolerance  0.0001;
        transform       unknown;
        myProcNo        25;
        neighbProcNo    33;
    }
    procBoundary25to34
    {
        type            processor;
        inGroups        List<word> 1(processor);
        nFaces          12;
        startFace       2485;
        matchTolerance  0.0001;
        transform       unknown;
        myProcNo        25;
        neighbProcNo    34;
    }
)

// ************************************************************************* //
