/*--------------------------------*- C++ -*----------------------------------*\
  =========                 |
  \\      /  F ield         | OpenFOAM: The Open Source CFD Toolbox
   \\    /   O peration     | Website:  https://openfoam.org
    \\  /    A nd           | Version:  7
     \\/     M anipulation  |
\*---------------------------------------------------------------------------*/
FoamFile
{
    version     2.0;
    format      ascii;
    class       polyBoundaryMesh;
    location    "constant/polyMesh";
    object      boundary;
}
// * * * * * * * * * * * * * * * * * * * * * * * * * * * * * * * * * * * * * //

10
(
    inlet
    {
        type            patch;
        nFaces          25;
        startFace       729;
    }
    outlet
    {
        type            patch;
        nFaces          0;
        startFace       754;
    }
    cylinder
    {
        type            wall;
        inGroups        List<word> 1(wall);
        nFaces          0;
        startFace       754;
    }
    top
    {
        type            symmetryPlane;
        inGroups        List<word> 1(symmetryPlane);
        nFaces          0;
        startFace       754;
    }
    bottom
    {
        type            symmetryPlane;
        inGroups        List<word> 1(symmetryPlane);
        nFaces          0;
        startFace       754;
    }
    defaultFaces
    {
        type            empty;
        inGroups        List<word> 1(empty);
        nFaces          770;
        startFace       754;
    }
    procBoundary40to32
    {
        type            processor;
        inGroups        List<word> 1(processor);
        nFaces          16;
        startFace       1524;
        matchTolerance  0.0001;
        transform       unknown;
        myProcNo        40;
        neighbProcNo    32;
    }
    procBoundary40to33
    {
        type            processor;
        inGroups        List<word> 1(processor);
        nFaces          5;
        startFace       1540;
        matchTolerance  0.0001;
        transform       unknown;
        myProcNo        40;
        neighbProcNo    33;
    }
    procBoundary40to41
    {
        type            processor;
        inGroups        List<word> 1(processor);
        nFaces          21;
        startFace       1545;
        matchTolerance  0.0001;
        transform       unknown;
        myProcNo        40;
        neighbProcNo    41;
    }
    procBoundary40to48
    {
        type            processor;
        inGroups        List<word> 1(processor);
        nFaces          15;
        startFace       1566;
        matchTolerance  0.0001;
        transform       unknown;
        myProcNo        40;
        neighbProcNo    48;
    }
)

// ************************************************************************* //
