/*--------------------------------*- C++ -*----------------------------------*\
  =========                 |
  \\      /  F ield         | OpenFOAM: The Open Source CFD Toolbox
   \\    /   O peration     | Website:  https://openfoam.org
    \\  /    A nd           | Version:  7
     \\/     M anipulation  |
\*---------------------------------------------------------------------------*/
FoamFile
{
    version     2.0;
    format      ascii;
    class       polyBoundaryMesh;
    location    "constant/polyMesh";
    object      boundary;
}
// * * * * * * * * * * * * * * * * * * * * * * * * * * * * * * * * * * * * * //

9
(
    inlet
    {
        type            patch;
        nFaces          26;
        startFace       728;
    }
    outlet
    {
        type            patch;
        nFaces          0;
        startFace       754;
    }
    cylinder
    {
        type            wall;
        inGroups        List<word> 1(wall);
        nFaces          0;
        startFace       754;
    }
    top
    {
        type            symmetryPlane;
        inGroups        List<word> 1(symmetryPlane);
        nFaces          0;
        startFace       754;
    }
    bottom
    {
        type            symmetryPlane;
        inGroups        List<word> 1(symmetryPlane);
        nFaces          0;
        startFace       754;
    }
    defaultFaces
    {
        type            empty;
        inGroups        List<word> 1(empty);
        nFaces          770;
        startFace       754;
    }
    procBoundary24to16
    {
        type            processor;
        inGroups        List<word> 1(processor);
        nFaces          17;
        startFace       1524;
        matchTolerance  0.0001;
        transform       unknown;
        myProcNo        24;
        neighbProcNo    16;
    }
    procBoundary24to25
    {
        type            processor;
        inGroups        List<word> 1(processor);
        nFaces          23;
        startFace       1541;
        matchTolerance  0.0001;
        transform       unknown;
        myProcNo        24;
        neighbProcNo    25;
    }
    procBoundary24to32
    {
        type            processor;
        inGroups        List<word> 1(processor);
        nFaces          18;
        startFace       1564;
        matchTolerance  0.0001;
        transform       unknown;
        myProcNo        24;
        neighbProcNo    32;
    }
)

// ************************************************************************* //
