/*--------------------------------*- C++ -*----------------------------------*\
  =========                 |
  \\      /  F ield         | OpenFOAM: The Open Source CFD Toolbox
   \\    /   O peration     | Website:  https://openfoam.org
    \\  /    A nd           | Version:  7
     \\/     M anipulation  |
\*---------------------------------------------------------------------------*/
FoamFile
{
    version     2.0;
    format      ascii;
    class       polyBoundaryMesh;
    location    "constant/polyMesh";
    object      boundary;
}
// * * * * * * * * * * * * * * * * * * * * * * * * * * * * * * * * * * * * * //

12
(
    inlet
    {
        type            patch;
        nFaces          0;
        startFace       728;
    }
    outlet
    {
        type            patch;
        nFaces          0;
        startFace       728;
    }
    cylinder
    {
        type            wall;
        inGroups        List<word> 1(wall);
        nFaces          0;
        startFace       728;
    }
    top
    {
        type            symmetryPlane;
        inGroups        List<word> 1(symmetryPlane);
        nFaces          0;
        startFace       728;
    }
    bottom
    {
        type            symmetryPlane;
        inGroups        List<word> 1(symmetryPlane);
        nFaces          0;
        startFace       728;
    }
    defaultFaces
    {
        type            empty;
        inGroups        List<word> 1(empty);
        nFaces          770;
        startFace       728;
    }
    procBoundary12to3
    {
        type            processor;
        inGroups        List<word> 1(processor);
        nFaces          8;
        startFace       1498;
        matchTolerance  0.0001;
        transform       unknown;
        myProcNo        12;
        neighbProcNo    3;
    }
    procBoundary12to4
    {
        type            processor;
        inGroups        List<word> 1(processor);
        nFaces          18;
        startFace       1506;
        matchTolerance  0.0001;
        transform       unknown;
        myProcNo        12;
        neighbProcNo    4;
    }
    procBoundary12to5
    {
        type            processor;
        inGroups        List<word> 1(processor);
        nFaces          1;
        startFace       1524;
        matchTolerance  0.0001;
        transform       unknown;
        myProcNo        12;
        neighbProcNo    5;
    }
    procBoundary12to11
    {
        type            processor;
        inGroups        List<word> 1(processor);
        nFaces          16;
        startFace       1525;
        matchTolerance  0.0001;
        transform       unknown;
        myProcNo        12;
        neighbProcNo    11;
    }
    procBoundary12to13
    {
        type            processor;
        inGroups        List<word> 1(processor);
        nFaces          23;
        startFace       1541;
        matchTolerance  0.0001;
        transform       unknown;
        myProcNo        12;
        neighbProcNo    13;
    }
    procBoundary12to20
    {
        type            processor;
        inGroups        List<word> 1(processor);
        nFaces          18;
        startFace       1564;
        matchTolerance  0.0001;
        transform       unknown;
        myProcNo        12;
        neighbProcNo    20;
    }
)

// ************************************************************************* //
