/*--------------------------------*- C++ -*----------------------------------*\
  =========                 |
  \\      /  F ield         | OpenFOAM: The Open Source CFD Toolbox
   \\    /   O peration     | Website:  https://openfoam.org
    \\  /    A nd           | Version:  7
     \\/     M anipulation  |
\*---------------------------------------------------------------------------*/
FoamFile
{
    version     2.0;
    format      ascii;
    class       polyBoundaryMesh;
    location    "constant/polyMesh";
    object      boundary;
}
// * * * * * * * * * * * * * * * * * * * * * * * * * * * * * * * * * * * * * //

11
(
    inlet
    {
        type            patch;
        nFaces          0;
        startFace       1155;
    }
    outlet
    {
        type            patch;
        nFaces          0;
        startFace       1155;
    }
    cylinder
    {
        type            wall;
        inGroups        List<word> 1(wall);
        nFaces          0;
        startFace       1155;
    }
    top
    {
        type            symmetryPlane;
        inGroups        List<word> 1(symmetryPlane);
        nFaces          0;
        startFace       1155;
    }
    bottom
    {
        type            symmetryPlane;
        inGroups        List<word> 1(symmetryPlane);
        nFaces          0;
        startFace       1155;
    }
    defaultFaces
    {
        type            empty;
        inGroups        List<word> 1(empty);
        nFaces          1214;
        startFace       1155;
    }
    procBoundary29to21
    {
        type            processor;
        inGroups        List<word> 1(processor);
        nFaces          26;
        startFace       2369;
        matchTolerance  0.0001;
        transform       unknown;
        myProcNo        29;
        neighbProcNo    21;
    }
    procBoundary29to28
    {
        type            processor;
        inGroups        List<word> 1(processor);
        nFaces          39;
        startFace       2395;
        matchTolerance  0.0001;
        transform       unknown;
        myProcNo        29;
        neighbProcNo    28;
    }
    procBoundary29to30
    {
        type            processor;
        inGroups        List<word> 1(processor);
        nFaces          26;
        startFace       2434;
        matchTolerance  0.0001;
        transform       unknown;
        myProcNo        29;
        neighbProcNo    30;
    }
    procBoundary29to37
    {
        type            processor;
        inGroups        List<word> 1(processor);
        nFaces          25;
        startFace       2460;
        matchTolerance  0.0001;
        transform       unknown;
        myProcNo        29;
        neighbProcNo    37;
    }
    procBoundary29to38
    {
        type            processor;
        inGroups        List<word> 1(processor);
        nFaces          2;
        startFace       2485;
        matchTolerance  0.0001;
        transform       unknown;
        myProcNo        29;
        neighbProcNo    38;
    }
)

// ************************************************************************* //
