/*--------------------------------*- C++ -*----------------------------------*\
  =========                 |
  \\      /  F ield         | OpenFOAM: The Open Source CFD Toolbox
   \\    /   O peration     | Website:  https://openfoam.org
    \\  /    A nd           | Version:  7
     \\/     M anipulation  |
\*---------------------------------------------------------------------------*/
FoamFile
{
    version     2.0;
    format      ascii;
    class       polyBoundaryMesh;
    location    "constant/polyMesh";
    object      boundary;
}
// * * * * * * * * * * * * * * * * * * * * * * * * * * * * * * * * * * * * * //

10
(
    inlet
    {
        type            patch;
        nFaces          0;
        startFace       524;
    }
    outlet
    {
        type            patch;
        nFaces          0;
        startFace       524;
    }
    cylinder
    {
        type            wall;
        inGroups        List<word> 1(wall);
        nFaces          240;
        startFace       524;
    }
    top
    {
        type            symmetryPlane;
        inGroups        List<word> 1(symmetryPlane);
        nFaces          0;
        startFace       764;
    }
    bottom
    {
        type            symmetryPlane;
        inGroups        List<word> 1(symmetryPlane);
        nFaces          0;
        startFace       764;
    }
    defaultFaces
    {
        type            empty;
        inGroups        List<word> 1(empty);
        nFaces          770;
        startFace       764;
    }
    procBoundary27to19
    {
        type            processor;
        inGroups        List<word> 1(processor);
        nFaces          74;
        startFace       1534;
        matchTolerance  0.0001;
        transform       unknown;
        myProcNo        27;
        neighbProcNo    19;
    }
    procBoundary27to26
    {
        type            processor;
        inGroups        List<word> 1(processor);
        nFaces          73;
        startFace       1608;
        matchTolerance  0.0001;
        transform       unknown;
        myProcNo        27;
        neighbProcNo    26;
    }
    procBoundary27to28
    {
        type            processor;
        inGroups        List<word> 1(processor);
        nFaces          38;
        startFace       1681;
        matchTolerance  0.0001;
        transform       unknown;
        myProcNo        27;
        neighbProcNo    28;
    }
    procBoundary27to35
    {
        type            processor;
        inGroups        List<word> 1(processor);
        nFaces          67;
        startFace       1719;
        matchTolerance  0.0001;
        transform       unknown;
        myProcNo        27;
        neighbProcNo    35;
    }
)

// ************************************************************************* //
