/*--------------------------------*- C++ -*----------------------------------*\
  =========                 |
  \\      /  F ield         | OpenFOAM: The Open Source CFD Toolbox
   \\    /   O peration     | Website:  https://openfoam.org
    \\  /    A nd           | Version:  7
     \\/     M anipulation  |
\*---------------------------------------------------------------------------*/
FoamFile
{
    version     2.0;
    format      ascii;
    class       polyBoundaryMesh;
    location    "constant/polyMesh";
    object      boundary;
}
// * * * * * * * * * * * * * * * * * * * * * * * * * * * * * * * * * * * * * //

6
(
    right
    {
        type            wedge;
        physicalType    patch;
        nFaces          19392;
        startFace       28816;
    }
    IsoQ_walls
    {
        type            patch;
        physicalType    patch;
        nFaces          278;
        startFace       48208;
    }
    inlet
    {
        type            patch;
        physicalType    patch;
        nFaces          25;
        startFace       48486;
    }
    left
    {
        type            wedge;
        physicalType    patch;
        nFaces          19392;
        startFace       48511;
    }
    outlet
    {
        type            patch;
        physicalType    patch;
        nFaces          64;
        startFace       67903;
    }
    top
    {
        type            patch;
        physicalType    patch;
        nFaces          50;
        startFace       67967;
    }
)

// ************************************************************************* //
