/*--------------------------------*- C++ -*----------------------------------*\
  =========                 |
  \\      /  F ield         | OpenFOAM: The Open Source CFD Toolbox
   \\    /   O peration     | Website:  https://openfoam.org
    \\  /    A nd           | Version:  7
     \\/     M anipulation  |
\*---------------------------------------------------------------------------*/
FoamFile
{
    version     2.0;
    format      ascii;
    class       polyBoundaryMesh;
    location    "constant/polyMesh";
    object      boundary;
}
// * * * * * * * * * * * * * * * * * * * * * * * * * * * * * * * * * * * * * //

12
(
    inlet
    {
        type            patch;
        nFaces          0;
        startFace       4720;
    }
    outlet
    {
        type            patch;
        nFaces          0;
        startFace       4720;
    }
    bottom
    {
        type            symmetryPlane;
        inGroups        List<word> 1(symmetryPlane);
        nFaces          0;
        startFace       4720;
    }
    top
    {
        type            symmetryPlane;
        inGroups        List<word> 1(symmetryPlane);
        nFaces          88;
        startFace       4720;
    }
    obstacle
    {
        type            patch;
        nFaces          0;
        startFace       4808;
    }
    front
    {
        type            empty;
        inGroups        List<word> 1(empty);
        nFaces          2418;
        startFace       4808;
    }
    back
    {
        type            empty;
        inGroups        List<word> 1(empty);
        nFaces          2418;
        startFace       7226;
    }
    procBoundary51to42
    {
        type            processor;
        inGroups        List<word> 1(processor);
        nFaces          8;
        startFace       9644;
        matchTolerance  0.0001;
        transform       unknown;
        myProcNo        51;
        neighbProcNo    42;
    }
    procBoundary51to43
    {
        type            processor;
        inGroups        List<word> 1(processor);
        nFaces          89;
        startFace       9652;
        matchTolerance  0.0001;
        transform       unknown;
        myProcNo        51;
        neighbProcNo    43;
    }
    procBoundary51to44
    {
        type            processor;
        inGroups        List<word> 1(processor);
        nFaces          1;
        startFace       9741;
        matchTolerance  0.0001;
        transform       unknown;
        myProcNo        51;
        neighbProcNo    44;
    }
    procBoundary51to50
    {
        type            processor;
        inGroups        List<word> 1(processor);
        nFaces          19;
        startFace       9742;
        matchTolerance  0.0001;
        transform       unknown;
        myProcNo        51;
        neighbProcNo    50;
    }
    procBoundary51to52
    {
        type            processor;
        inGroups        List<word> 1(processor);
        nFaces          27;
        startFace       9761;
        matchTolerance  0.0001;
        transform       unknown;
        myProcNo        51;
        neighbProcNo    52;
    }
)

// ************************************************************************* //
