/*--------------------------------*- C++ -*----------------------------------*\
  =========                 |
  \\      /  F ield         | OpenFOAM: The Open Source CFD Toolbox
   \\    /   O peration     | Website:  https://openfoam.org
    \\  /    A nd           | Version:  7
     \\/     M anipulation  |
\*---------------------------------------------------------------------------*/
FoamFile
{
    version     2.0;
    format      ascii;
    class       polyBoundaryMesh;
    location    "constant/polyMesh";
    object      boundary;
}
// * * * * * * * * * * * * * * * * * * * * * * * * * * * * * * * * * * * * * //

9
(
    inlet
    {
        type            patch;
        nFaces          0;
        startFace       4685;
    }
    outlet
    {
        type            patch;
        nFaces          19;
        startFace       4685;
    }
    bottom
    {
        type            symmetryPlane;
        inGroups        List<word> 1(symmetryPlane);
        nFaces          0;
        startFace       4704;
    }
    top
    {
        type            symmetryPlane;
        inGroups        List<word> 1(symmetryPlane);
        nFaces          131;
        startFace       4704;
    }
    obstacle
    {
        type            patch;
        nFaces          0;
        startFace       4835;
    }
    front
    {
        type            empty;
        inGroups        List<word> 1(empty);
        nFaces          2418;
        startFace       4835;
    }
    back
    {
        type            empty;
        inGroups        List<word> 1(empty);
        nFaces          2418;
        startFace       7253;
    }
    procBoundary55to47
    {
        type            processor;
        inGroups        List<word> 1(processor);
        nFaces          133;
        startFace       9671;
        matchTolerance  0.0001;
        transform       unknown;
        myProcNo        55;
        neighbProcNo    47;
    }
    procBoundary55to54
    {
        type            processor;
        inGroups        List<word> 1(processor);
        nFaces          19;
        startFace       9804;
        matchTolerance  0.0001;
        transform       unknown;
        myProcNo        55;
        neighbProcNo    54;
    }
)

// ************************************************************************* //
