/*--------------------------------*- C++ -*----------------------------------*\
  =========                 |
  \\      /  F ield         | OpenFOAM: The Open Source CFD Toolbox
   \\    /   O peration     | Website:  https://openfoam.org
    \\  /    A nd           | Version:  7
     \\/     M anipulation  |
\*---------------------------------------------------------------------------*/
FoamFile
{
    version     2.0;
    format      ascii;
    class       polyBoundaryMesh;
    location    "constant/polyMesh";
    object      boundary;
}
// * * * * * * * * * * * * * * * * * * * * * * * * * * * * * * * * * * * * * //

12
(
    inlet
    {
        type            patch;
        nFaces          0;
        startFace       683;
    }
    outlet
    {
        type            patch;
        nFaces          0;
        startFace       683;
    }
    cylinder
    {
        type            wall;
        inGroups        List<word> 1(wall);
        nFaces          0;
        startFace       683;
    }
    top
    {
        type            symmetryPlane;
        inGroups        List<word> 1(symmetryPlane);
        nFaces          0;
        startFace       683;
    }
    bottom
    {
        type            symmetryPlane;
        inGroups        List<word> 1(symmetryPlane);
        nFaces          0;
        startFace       683;
    }
    defaultFaces
    {
        type            empty;
        inGroups        List<word> 1(empty);
        nFaces          770;
        startFace       683;
    }
    procBoundary26to18
    {
        type            processor;
        inGroups        List<word> 1(processor);
        nFaces          30;
        startFace       1453;
        matchTolerance  0.0001;
        transform       unknown;
        myProcNo        26;
        neighbProcNo    18;
    }
    procBoundary26to19
    {
        type            processor;
        inGroups        List<word> 1(processor);
        nFaces          10;
        startFace       1483;
        matchTolerance  0.0001;
        transform       unknown;
        myProcNo        26;
        neighbProcNo    19;
    }
    procBoundary26to25
    {
        type            processor;
        inGroups        List<word> 1(processor);
        nFaces          32;
        startFace       1493;
        matchTolerance  0.0001;
        transform       unknown;
        myProcNo        26;
        neighbProcNo    25;
    }
    procBoundary26to27
    {
        type            processor;
        inGroups        List<word> 1(processor);
        nFaces          73;
        startFace       1525;
        matchTolerance  0.0001;
        transform       unknown;
        myProcNo        26;
        neighbProcNo    27;
    }
    procBoundary26to34
    {
        type            processor;
        inGroups        List<word> 1(processor);
        nFaces          28;
        startFace       1598;
        matchTolerance  0.0001;
        transform       unknown;
        myProcNo        26;
        neighbProcNo    34;
    }
    procBoundary26to35
    {
        type            processor;
        inGroups        List<word> 1(processor);
        nFaces          1;
        startFace       1626;
        matchTolerance  0.0001;
        transform       unknown;
        myProcNo        26;
        neighbProcNo    35;
    }
)

// ************************************************************************* //
