/*--------------------------------*- C++ -*----------------------------------*\
  =========                 |
  \\      /  F ield         | OpenFOAM: The Open Source CFD Toolbox
   \\    /   O peration     | Website:  https://openfoam.org
    \\  /    A nd           | Version:  7
     \\/     M anipulation  |
\*---------------------------------------------------------------------------*/
FoamFile
{
    version     2.0;
    format      ascii;
    class       polyBoundaryMesh;
    location    "constant/polyMesh";
    object      boundary;
}
// * * * * * * * * * * * * * * * * * * * * * * * * * * * * * * * * * * * * * //

10
(
    inlet
    {
        type            patch;
        nFaces          0;
        startFace       932;
    }
    outlet
    {
        type            patch;
        nFaces          0;
        startFace       932;
    }
    cylinder
    {
        type            wall;
        inGroups        List<word> 1(wall);
        nFaces          274;
        startFace       932;
    }
    top
    {
        type            symmetryPlane;
        inGroups        List<word> 1(symmetryPlane);
        nFaces          0;
        startFace       1206;
    }
    bottom
    {
        type            symmetryPlane;
        inGroups        List<word> 1(symmetryPlane);
        nFaces          0;
        startFace       1206;
    }
    defaultFaces
    {
        type            empty;
        inGroups        List<word> 1(empty);
        nFaces          1214;
        startFace       1206;
    }
    procBoundary27to19
    {
        type            processor;
        inGroups        List<word> 1(processor);
        nFaces          87;
        startFace       2420;
        matchTolerance  0.0001;
        transform       unknown;
        myProcNo        27;
        neighbProcNo    19;
    }
    procBoundary27to26
    {
        type            processor;
        inGroups        List<word> 1(processor);
        nFaces          58;
        startFace       2507;
        matchTolerance  0.0001;
        transform       unknown;
        myProcNo        27;
        neighbProcNo    26;
    }
    procBoundary27to28
    {
        type            processor;
        inGroups        List<word> 1(processor);
        nFaces          58;
        startFace       2565;
        matchTolerance  0.0001;
        transform       unknown;
        myProcNo        27;
        neighbProcNo    28;
    }
    procBoundary27to35
    {
        type            processor;
        inGroups        List<word> 1(processor);
        nFaces          87;
        startFace       2623;
        matchTolerance  0.0001;
        transform       unknown;
        myProcNo        27;
        neighbProcNo    35;
    }
)

// ************************************************************************* //
