/*--------------------------------*- C++ -*----------------------------------*\
  =========                 |
  \\      /  F ield         | OpenFOAM: The Open Source CFD Toolbox
   \\    /   O peration     | Website:  https://openfoam.org
    \\  /    A nd           | Version:  7
     \\/     M anipulation  |
\*---------------------------------------------------------------------------*/
FoamFile
{
    version     2.0;
    format      ascii;
    class       polyBoundaryMesh;
    location    "constant/polyMesh";
    object      boundary;
}
// * * * * * * * * * * * * * * * * * * * * * * * * * * * * * * * * * * * * * //

12
(
    inlet
    {
        type            patch;
        nFaces          0;
        startFace       689;
    }
    outlet
    {
        type            patch;
        nFaces          0;
        startFace       689;
    }
    cylinder
    {
        type            wall;
        inGroups        List<word> 1(wall);
        nFaces          0;
        startFace       689;
    }
    top
    {
        type            symmetryPlane;
        inGroups        List<word> 1(symmetryPlane);
        nFaces          0;
        startFace       689;
    }
    bottom
    {
        type            symmetryPlane;
        inGroups        List<word> 1(symmetryPlane);
        nFaces          0;
        startFace       689;
    }
    defaultFaces
    {
        type            empty;
        inGroups        List<word> 1(empty);
        nFaces          770;
        startFace       689;
    }
    procBoundary28to19
    {
        type            processor;
        inGroups        List<word> 1(processor);
        nFaces          24;
        startFace       1459;
        matchTolerance  0.0001;
        transform       unknown;
        myProcNo        28;
        neighbProcNo    19;
    }
    procBoundary28to20
    {
        type            processor;
        inGroups        List<word> 1(processor);
        nFaces          22;
        startFace       1483;
        matchTolerance  0.0001;
        transform       unknown;
        myProcNo        28;
        neighbProcNo    20;
    }
    procBoundary28to27
    {
        type            processor;
        inGroups        List<word> 1(processor);
        nFaces          38;
        startFace       1505;
        matchTolerance  0.0001;
        transform       unknown;
        myProcNo        28;
        neighbProcNo    27;
    }
    procBoundary28to29
    {
        type            processor;
        inGroups        List<word> 1(processor);
        nFaces          40;
        startFace       1543;
        matchTolerance  0.0001;
        transform       unknown;
        myProcNo        28;
        neighbProcNo    29;
    }
    procBoundary28to35
    {
        type            processor;
        inGroups        List<word> 1(processor);
        nFaces          17;
        startFace       1583;
        matchTolerance  0.0001;
        transform       unknown;
        myProcNo        28;
        neighbProcNo    35;
    }
    procBoundary28to36
    {
        type            processor;
        inGroups        List<word> 1(processor);
        nFaces          21;
        startFace       1600;
        matchTolerance  0.0001;
        transform       unknown;
        myProcNo        28;
        neighbProcNo    36;
    }
)

// ************************************************************************* //
