/*--------------------------------*- C++ -*----------------------------------*\
  =========                 |
  \\      /  F ield         | OpenFOAM: The Open Source CFD Toolbox
   \\    /   O peration     | Website:  https://openfoam.org
    \\  /    A nd           | Version:  7
     \\/     M anipulation  |
\*---------------------------------------------------------------------------*/
FoamFile
{
    version     2.0;
    format      ascii;
    class       polyBoundaryMesh;
    location    "constant/polyMesh";
    object      boundary;
}
// * * * * * * * * * * * * * * * * * * * * * * * * * * * * * * * * * * * * * //

11
(
    inlet
    {
        type            patch;
        nFaces          0;
        startFace       4688;
    }
    outlet
    {
        type            patch;
        nFaces          0;
        startFace       4688;
    }
    bottom
    {
        type            symmetryPlane;
        inGroups        List<word> 1(symmetryPlane);
        nFaces          0;
        startFace       4688;
    }
    top
    {
        type            symmetryPlane;
        inGroups        List<word> 1(symmetryPlane);
        nFaces          129;
        startFace       4688;
    }
    obstacle
    {
        type            patch;
        nFaces          0;
        startFace       4817;
    }
    front
    {
        type            empty;
        inGroups        List<word> 1(empty);
        nFaces          2418;
        startFace       4817;
    }
    back
    {
        type            empty;
        inGroups        List<word> 1(empty);
        nFaces          2418;
        startFace       7235;
    }
    procBoundary53to45
    {
        type            processor;
        inGroups        List<word> 1(processor);
        nFaces          129;
        startFace       9653;
        matchTolerance  0.0001;
        transform       unknown;
        myProcNo        53;
        neighbProcNo    45;
    }
    procBoundary53to46
    {
        type            processor;
        inGroups        List<word> 1(processor);
        nFaces          1;
        startFace       9782;
        matchTolerance  0.0001;
        transform       unknown;
        myProcNo        53;
        neighbProcNo    46;
    }
    procBoundary53to52
    {
        type            processor;
        inGroups        List<word> 1(processor);
        nFaces          18;
        startFace       9783;
        matchTolerance  0.0001;
        transform       unknown;
        myProcNo        53;
        neighbProcNo    52;
    }
    procBoundary53to54
    {
        type            processor;
        inGroups        List<word> 1(processor);
        nFaces          19;
        startFace       9801;
        matchTolerance  0.0001;
        transform       unknown;
        myProcNo        53;
        neighbProcNo    54;
    }
)

// ************************************************************************* //
