/*--------------------------------*- C++ -*----------------------------------*\
  =========                 |
  \\      /  F ield         | OpenFOAM: The Open Source CFD Toolbox
   \\    /   O peration     | Website:  https://openfoam.org
    \\  /    A nd           | Version:  7
     \\/     M anipulation  |
\*---------------------------------------------------------------------------*/
FoamFile
{
    version     2.0;
    format      ascii;
    class       polyBoundaryMesh;
    location    "constant/polyMesh";
    object      boundary;
}
// * * * * * * * * * * * * * * * * * * * * * * * * * * * * * * * * * * * * * //

12
(
    inlet
    {
        type            patch;
        nFaces          0;
        startFace       1119;
    }
    outlet
    {
        type            patch;
        nFaces          0;
        startFace       1119;
    }
    cylinder
    {
        type            wall;
        inGroups        List<word> 1(wall);
        nFaces          0;
        startFace       1119;
    }
    top
    {
        type            symmetryPlane;
        inGroups        List<word> 1(symmetryPlane);
        nFaces          0;
        startFace       1119;
    }
    bottom
    {
        type            symmetryPlane;
        inGroups        List<word> 1(symmetryPlane);
        nFaces          0;
        startFace       1119;
    }
    defaultFaces
    {
        type            empty;
        inGroups        List<word> 1(empty);
        nFaces          1214;
        startFace       1119;
    }
    procBoundary35to26
    {
        type            processor;
        inGroups        List<word> 1(processor);
        nFaces          1;
        startFace       2333;
        matchTolerance  0.0001;
        transform       unknown;
        myProcNo        35;
        neighbProcNo    26;
    }
    procBoundary35to27
    {
        type            processor;
        inGroups        List<word> 1(processor);
        nFaces          87;
        startFace       2334;
        matchTolerance  0.0001;
        transform       unknown;
        myProcNo        35;
        neighbProcNo    27;
    }
    procBoundary35to28
    {
        type            processor;
        inGroups        List<word> 1(processor);
        nFaces          17;
        startFace       2421;
        matchTolerance  0.0001;
        transform       unknown;
        myProcNo        35;
        neighbProcNo    28;
    }
    procBoundary35to34
    {
        type            processor;
        inGroups        List<word> 1(processor);
        nFaces          32;
        startFace       2438;
        matchTolerance  0.0001;
        transform       unknown;
        myProcNo        35;
        neighbProcNo    34;
    }
    procBoundary35to36
    {
        type            processor;
        inGroups        List<word> 1(processor);
        nFaces          24;
        startFace       2470;
        matchTolerance  0.0001;
        transform       unknown;
        myProcNo        35;
        neighbProcNo    36;
    }
    procBoundary35to43
    {
        type            processor;
        inGroups        List<word> 1(processor);
        nFaces          29;
        startFace       2494;
        matchTolerance  0.0001;
        transform       unknown;
        myProcNo        35;
        neighbProcNo    43;
    }
)

// ************************************************************************* //
