/*--------------------------------*- C++ -*----------------------------------*\
  =========                 |
  \\      /  F ield         | OpenFOAM: The Open Source CFD Toolbox
   \\    /   O peration     | Website:  https://openfoam.org
    \\  /    A nd           | Version:  7
     \\/     M anipulation  |
\*---------------------------------------------------------------------------*/
FoamFile
{
    version     2.0;
    format      ascii;
    class       polyBoundaryMesh;
    location    "constant/polyMesh";
    object      boundary;
}
// * * * * * * * * * * * * * * * * * * * * * * * * * * * * * * * * * * * * * //

10
(
    inlet
    {
        type            patch;
        nFaces          24;
        startFace       728;
    }
    outlet
    {
        type            patch;
        nFaces          0;
        startFace       752;
    }
    cylinder
    {
        type            wall;
        inGroups        List<word> 1(wall);
        nFaces          0;
        startFace       752;
    }
    top
    {
        type            symmetryPlane;
        inGroups        List<word> 1(symmetryPlane);
        nFaces          0;
        startFace       752;
    }
    bottom
    {
        type            symmetryPlane;
        inGroups        List<word> 1(symmetryPlane);
        nFaces          0;
        startFace       752;
    }
    defaultFaces
    {
        type            empty;
        inGroups        List<word> 1(empty);
        nFaces          770;
        startFace       752;
    }
    procBoundary16to8
    {
        type            processor;
        inGroups        List<word> 1(processor);
        nFaces          16;
        startFace       1522;
        matchTolerance  0.0001;
        transform       unknown;
        myProcNo        16;
        neighbProcNo    8;
    }
    procBoundary16to17
    {
        type            processor;
        inGroups        List<word> 1(processor);
        nFaces          22;
        startFace       1538;
        matchTolerance  0.0001;
        transform       unknown;
        myProcNo        16;
        neighbProcNo    17;
    }
    procBoundary16to24
    {
        type            processor;
        inGroups        List<word> 1(processor);
        nFaces          17;
        startFace       1560;
        matchTolerance  0.0001;
        transform       unknown;
        myProcNo        16;
        neighbProcNo    24;
    }
    procBoundary16to25
    {
        type            processor;
        inGroups        List<word> 1(processor);
        nFaces          5;
        startFace       1577;
        matchTolerance  0.0001;
        transform       unknown;
        myProcNo        16;
        neighbProcNo    25;
    }
)

// ************************************************************************* //
