/*--------------------------------*- C++ -*----------------------------------*\
  =========                 |
  \\      /  F ield         | OpenFOAM: The Open Source CFD Toolbox
   \\    /   O peration     | Website:  https://openfoam.org
    \\  /    A nd           | Version:  7
     \\/     M anipulation  |
\*---------------------------------------------------------------------------*/
FoamFile
{
    version     2.0;
    format      ascii;
    class       polyBoundaryMesh;
    location    "constant/polyMesh";
    object      boundary;
}
// * * * * * * * * * * * * * * * * * * * * * * * * * * * * * * * * * * * * * //

12
(
    inlet
    {
        type            patch;
        nFaces          0;
        startFace       1102;
    }
    outlet
    {
        type            patch;
        nFaces          0;
        startFace       1102;
    }
    cylinder
    {
        type            wall;
        inGroups        List<word> 1(wall);
        nFaces          46;
        startFace       1102;
    }
    top
    {
        type            symmetryPlane;
        inGroups        List<word> 1(symmetryPlane);
        nFaces          0;
        startFace       1148;
    }
    bottom
    {
        type            symmetryPlane;
        inGroups        List<word> 1(symmetryPlane);
        nFaces          0;
        startFace       1148;
    }
    defaultFaces
    {
        type            empty;
        inGroups        List<word> 1(empty);
        nFaces          1214;
        startFace       1148;
    }
    procBoundary26to18
    {
        type            processor;
        inGroups        List<word> 1(processor);
        nFaces          42;
        startFace       2362;
        matchTolerance  0.0001;
        transform       unknown;
        myProcNo        26;
        neighbProcNo    18;
    }
    procBoundary26to19
    {
        type            processor;
        inGroups        List<word> 1(processor);
        nFaces          1;
        startFace       2404;
        matchTolerance  0.0001;
        transform       unknown;
        myProcNo        26;
        neighbProcNo    19;
    }
    procBoundary26to25
    {
        type            processor;
        inGroups        List<word> 1(processor);
        nFaces          33;
        startFace       2405;
        matchTolerance  0.0001;
        transform       unknown;
        myProcNo        26;
        neighbProcNo    25;
    }
    procBoundary26to27
    {
        type            processor;
        inGroups        List<word> 1(processor);
        nFaces          58;
        startFace       2438;
        matchTolerance  0.0001;
        transform       unknown;
        myProcNo        26;
        neighbProcNo    27;
    }
    procBoundary26to34
    {
        type            processor;
        inGroups        List<word> 1(processor);
        nFaces          43;
        startFace       2496;
        matchTolerance  0.0001;
        transform       unknown;
        myProcNo        26;
        neighbProcNo    34;
    }
    procBoundary26to35
    {
        type            processor;
        inGroups        List<word> 1(processor);
        nFaces          1;
        startFace       2539;
        matchTolerance  0.0001;
        transform       unknown;
        myProcNo        26;
        neighbProcNo    35;
    }
)

// ************************************************************************* //
