/*--------------------------------*- C++ -*----------------------------------*\
  =========                 |
  \\      /  F ield         | OpenFOAM: The Open Source CFD Toolbox
   \\    /   O peration     | Website:  https://openfoam.org
    \\  /    A nd           | Version:  7
     \\/     M anipulation  |
\*---------------------------------------------------------------------------*/
FoamFile
{
    version     2.0;
    format      ascii;
    class       polyBoundaryMesh;
    location    "constant/polyMesh";
    object      boundary;
}
// * * * * * * * * * * * * * * * * * * * * * * * * * * * * * * * * * * * * * //

12
(
    inlet
    {
        type            patch;
        nFaces          0;
        startFace       1162;
    }
    outlet
    {
        type            patch;
        nFaces          0;
        startFace       1162;
    }
    cylinder
    {
        type            wall;
        inGroups        List<word> 1(wall);
        nFaces          0;
        startFace       1162;
    }
    top
    {
        type            symmetryPlane;
        inGroups        List<word> 1(symmetryPlane);
        nFaces          0;
        startFace       1162;
    }
    bottom
    {
        type            symmetryPlane;
        inGroups        List<word> 1(symmetryPlane);
        nFaces          0;
        startFace       1162;
    }
    defaultFaces
    {
        type            empty;
        inGroups        List<word> 1(empty);
        nFaces          1214;
        startFace       1162;
    }
    procBoundary45to36
    {
        type            processor;
        inGroups        List<word> 1(processor);
        nFaces          8;
        startFace       2376;
        matchTolerance  0.0001;
        transform       unknown;
        myProcNo        45;
        neighbProcNo    36;
    }
    procBoundary45to37
    {
        type            processor;
        inGroups        List<word> 1(processor);
        nFaces          22;
        startFace       2384;
        matchTolerance  0.0001;
        transform       unknown;
        myProcNo        45;
        neighbProcNo    37;
    }
    procBoundary45to44
    {
        type            processor;
        inGroups        List<word> 1(processor);
        nFaces          21;
        startFace       2406;
        matchTolerance  0.0001;
        transform       unknown;
        myProcNo        45;
        neighbProcNo    44;
    }
    procBoundary45to46
    {
        type            processor;
        inGroups        List<word> 1(processor);
        nFaces          27;
        startFace       2427;
        matchTolerance  0.0001;
        transform       unknown;
        myProcNo        45;
        neighbProcNo    46;
    }
    procBoundary45to53
    {
        type            processor;
        inGroups        List<word> 1(processor);
        nFaces          24;
        startFace       2454;
        matchTolerance  0.0001;
        transform       unknown;
        myProcNo        45;
        neighbProcNo    53;
    }
    procBoundary45to54
    {
        type            processor;
        inGroups        List<word> 1(processor);
        nFaces          2;
        startFace       2478;
        matchTolerance  0.0001;
        transform       unknown;
        myProcNo        45;
        neighbProcNo    54;
    }
)

// ************************************************************************* //
