/*--------------------------------*- C++ -*----------------------------------*\
  =========                 |
  \\      /  F ield         | OpenFOAM: The Open Source CFD Toolbox
   \\    /   O peration     | Website:  https://openfoam.org
    \\  /    A nd           | Version:  7
     \\/     M anipulation  |
\*---------------------------------------------------------------------------*/
FoamFile
{
    version     2.0;
    format      ascii;
    class       polyBoundaryMesh;
    location    "constant/polyMesh";
    object      boundary;
}
// * * * * * * * * * * * * * * * * * * * * * * * * * * * * * * * * * * * * * //

12
(
    inlet
    {
        type            patch;
        nFaces          0;
        startFace       694;
    }
    outlet
    {
        type            patch;
        nFaces          0;
        startFace       694;
    }
    cylinder
    {
        type            wall;
        inGroups        List<word> 1(wall);
        nFaces          0;
        startFace       694;
    }
    top
    {
        type            symmetryPlane;
        inGroups        List<word> 1(symmetryPlane);
        nFaces          0;
        startFace       694;
    }
    bottom
    {
        type            symmetryPlane;
        inGroups        List<word> 1(symmetryPlane);
        nFaces          0;
        startFace       694;
    }
    defaultFaces
    {
        type            empty;
        inGroups        List<word> 1(empty);
        nFaces          770;
        startFace       694;
    }
    procBoundary35to26
    {
        type            processor;
        inGroups        List<word> 1(processor);
        nFaces          1;
        startFace       1464;
        matchTolerance  0.0001;
        transform       unknown;
        myProcNo        35;
        neighbProcNo    26;
    }
    procBoundary35to27
    {
        type            processor;
        inGroups        List<word> 1(processor);
        nFaces          67;
        startFace       1465;
        matchTolerance  0.0001;
        transform       unknown;
        myProcNo        35;
        neighbProcNo    27;
    }
    procBoundary35to28
    {
        type            processor;
        inGroups        List<word> 1(processor);
        nFaces          17;
        startFace       1532;
        matchTolerance  0.0001;
        transform       unknown;
        myProcNo        35;
        neighbProcNo    28;
    }
    procBoundary35to34
    {
        type            processor;
        inGroups        List<word> 1(processor);
        nFaces          28;
        startFace       1549;
        matchTolerance  0.0001;
        transform       unknown;
        myProcNo        35;
        neighbProcNo    34;
    }
    procBoundary35to36
    {
        type            processor;
        inGroups        List<word> 1(processor);
        nFaces          24;
        startFace       1577;
        matchTolerance  0.0001;
        transform       unknown;
        myProcNo        35;
        neighbProcNo    36;
    }
    procBoundary35to43
    {
        type            processor;
        inGroups        List<word> 1(processor);
        nFaces          15;
        startFace       1601;
        matchTolerance  0.0001;
        transform       unknown;
        myProcNo        35;
        neighbProcNo    43;
    }
)

// ************************************************************************* //
