/*--------------------------------*- C++ -*----------------------------------*\
  =========                 |
  \\      /  F ield         | OpenFOAM: The Open Source CFD Toolbox
   \\    /   O peration     | Website:  https://openfoam.org
    \\  /    A nd           | Version:  7
     \\/     M anipulation  |
\*---------------------------------------------------------------------------*/
FoamFile
{
    version     2.0;
    format      ascii;
    class       polyBoundaryMesh;
    location    "constant/polyMesh";
    object      boundary;
}
// * * * * * * * * * * * * * * * * * * * * * * * * * * * * * * * * * * * * * //

11
(
    inlet
    {
        type            patch;
        nFaces          0;
        startFace       1162;
    }
    outlet
    {
        type            patch;
        nFaces          0;
        startFace       1162;
    }
    cylinder
    {
        type            wall;
        inGroups        List<word> 1(wall);
        nFaces          0;
        startFace       1162;
    }
    top
    {
        type            symmetryPlane;
        inGroups        List<word> 1(symmetryPlane);
        nFaces          0;
        startFace       1162;
    }
    bottom
    {
        type            symmetryPlane;
        inGroups        List<word> 1(symmetryPlane);
        nFaces          0;
        startFace       1162;
    }
    defaultFaces
    {
        type            empty;
        inGroups        List<word> 1(empty);
        nFaces          1214;
        startFace       1162;
    }
    procBoundary22to14
    {
        type            processor;
        inGroups        List<word> 1(processor);
        nFaces          22;
        startFace       2376;
        matchTolerance  0.0001;
        transform       unknown;
        myProcNo        22;
        neighbProcNo    14;
    }
    procBoundary22to15
    {
        type            processor;
        inGroups        List<word> 1(processor);
        nFaces          1;
        startFace       2398;
        matchTolerance  0.0001;
        transform       unknown;
        myProcNo        22;
        neighbProcNo    15;
    }
    procBoundary22to21
    {
        type            processor;
        inGroups        List<word> 1(processor);
        nFaces          30;
        startFace       2399;
        matchTolerance  0.0001;
        transform       unknown;
        myProcNo        22;
        neighbProcNo    21;
    }
    procBoundary22to23
    {
        type            processor;
        inGroups        List<word> 1(processor);
        nFaces          28;
        startFace       2429;
        matchTolerance  0.0001;
        transform       unknown;
        myProcNo        22;
        neighbProcNo    23;
    }
    procBoundary22to30
    {
        type            processor;
        inGroups        List<word> 1(processor);
        nFaces          23;
        startFace       2457;
        matchTolerance  0.0001;
        transform       unknown;
        myProcNo        22;
        neighbProcNo    30;
    }
)

// ************************************************************************* //
