/*--------------------------------*- C++ -*----------------------------------*\
  =========                 |
  \\      /  F ield         | OpenFOAM: The Open Source CFD Toolbox
   \\    /   O peration     | Website:  https://openfoam.org
    \\  /    A nd           | Version:  7
     \\/     M anipulation  |
\*---------------------------------------------------------------------------*/
FoamFile
{
    version     2.0;
    format      ascii;
    class       polyBoundaryMesh;
    location    "constant/polyMesh";
    object      boundary;
}
// * * * * * * * * * * * * * * * * * * * * * * * * * * * * * * * * * * * * * //

12
(
    inlet
    {
        type            patch;
        nFaces          0;
        startFace       4710;
    }
    outlet
    {
        type            patch;
        nFaces          0;
        startFace       4710;
    }
    bottom
    {
        type            symmetryPlane;
        inGroups        List<word> 1(symmetryPlane);
        nFaces          0;
        startFace       4710;
    }
    top
    {
        type            symmetryPlane;
        inGroups        List<word> 1(symmetryPlane);
        nFaces          0;
        startFace       4710;
    }
    obstacle
    {
        type            patch;
        nFaces          0;
        startFace       4710;
    }
    front
    {
        type            empty;
        inGroups        List<word> 1(empty);
        nFaces          2413;
        startFace       4710;
    }
    back
    {
        type            empty;
        inGroups        List<word> 1(empty);
        nFaces          2413;
        startFace       7123;
    }
    procBoundary11to2
    {
        type            processor;
        inGroups        List<word> 1(processor);
        nFaces          27;
        startFace       9536;
        matchTolerance  0.0001;
        transform       unknown;
        myProcNo        11;
        neighbProcNo    2;
    }
    procBoundary11to3
    {
        type            processor;
        inGroups        List<word> 1(processor);
        nFaces          89;
        startFace       9563;
        matchTolerance  0.0001;
        transform       unknown;
        myProcNo        11;
        neighbProcNo    3;
    }
    procBoundary11to4
    {
        type            processor;
        inGroups        List<word> 1(processor);
        nFaces          1;
        startFace       9652;
        matchTolerance  0.0001;
        transform       unknown;
        myProcNo        11;
        neighbProcNo    4;
    }
    procBoundary11to12
    {
        type            processor;
        inGroups        List<word> 1(processor);
        nFaces          26;
        startFace       9653;
        matchTolerance  0.0001;
        transform       unknown;
        myProcNo        11;
        neighbProcNo    12;
    }
    procBoundary11to19
    {
        type            processor;
        inGroups        List<word> 1(processor);
        nFaces          89;
        startFace       9679;
        matchTolerance  0.0001;
        transform       unknown;
        myProcNo        11;
        neighbProcNo    19;
    }
)

// ************************************************************************* //
