/*--------------------------------*- C++ -*----------------------------------*\
  =========                 |
  \\      /  F ield         | OpenFOAM: The Open Source CFD Toolbox
   \\    /   O peration     | Website:  https://openfoam.org
    \\  /    A nd           | Version:  7
     \\/     M anipulation  |
\*---------------------------------------------------------------------------*/
FoamFile
{
    version     2.0;
    format      ascii;
    class       polyBoundaryMesh;
    location    "constant/polyMesh";
    object      boundary;
}
// * * * * * * * * * * * * * * * * * * * * * * * * * * * * * * * * * * * * * //

13
(
    inlet
    {
        type            patch;
        nFaces          0;
        startFace       4709;
    }
    outlet
    {
        type            patch;
        nFaces          0;
        startFace       4709;
    }
    bottom
    {
        type            symmetryPlane;
        inGroups        List<word> 1(symmetryPlane);
        nFaces          0;
        startFace       4709;
    }
    top
    {
        type            symmetryPlane;
        inGroups        List<word> 1(symmetryPlane);
        nFaces          0;
        startFace       4709;
    }
    obstacle
    {
        type            patch;
        nFaces          0;
        startFace       4709;
    }
    front
    {
        type            empty;
        inGroups        List<word> 1(empty);
        nFaces          2413;
        startFace       4709;
    }
    back
    {
        type            empty;
        inGroups        List<word> 1(empty);
        nFaces          2413;
        startFace       7122;
    }
    procBoundary20to5
    {
        type            processor;
        inGroups        List<word> 1(processor);
        nFaces          25;
        startFace       9535;
        matchTolerance  0.0001;
        transform       unknown;
        myProcNo        20;
        neighbProcNo    5;
    }
    procBoundary20to12
    {
        type            processor;
        inGroups        List<word> 1(processor);
        nFaces          89;
        startFace       9560;
        matchTolerance  0.0001;
        transform       unknown;
        myProcNo        20;
        neighbProcNo    12;
    }
    procBoundary20to13
    {
        type            processor;
        inGroups        List<word> 1(processor);
        nFaces          3;
        startFace       9649;
        matchTolerance  0.0001;
        transform       unknown;
        myProcNo        20;
        neighbProcNo    13;
    }
    procBoundary20to19
    {
        type            processor;
        inGroups        List<word> 1(processor);
        nFaces          27;
        startFace       9652;
        matchTolerance  0.0001;
        transform       unknown;
        myProcNo        20;
        neighbProcNo    19;
    }
    procBoundary20to27
    {
        type            processor;
        inGroups        List<word> 1(processor);
        nFaces          1;
        startFace       9679;
        matchTolerance  0.0001;
        transform       unknown;
        myProcNo        20;
        neighbProcNo    27;
    }
    procBoundary20to28
    {
        type            processor;
        inGroups        List<word> 1(processor);
        nFaces          89;
        startFace       9680;
        matchTolerance  0.0001;
        transform       unknown;
        myProcNo        20;
        neighbProcNo    28;
    }
)

// ************************************************************************* //
