/*--------------------------------*- C++ -*----------------------------------*\
  =========                 |
  \\      /  F ield         | OpenFOAM: The Open Source CFD Toolbox
   \\    /   O peration     | Website:  https://openfoam.org
    \\  /    A nd           | Version:  7
     \\/     M anipulation  |
\*---------------------------------------------------------------------------*/
FoamFile
{
    version     2.0;
    format      ascii;
    class       polyBoundaryMesh;
    location    "constant/polyMesh";
    object      boundary;
}
// * * * * * * * * * * * * * * * * * * * * * * * * * * * * * * * * * * * * * //

12
(
    inlet
    {
        type            patch;
        nFaces          0;
        startFace       1163;
    }
    outlet
    {
        type            patch;
        nFaces          0;
        startFace       1163;
    }
    cylinder
    {
        type            wall;
        inGroups        List<word> 1(wall);
        nFaces          0;
        startFace       1163;
    }
    top
    {
        type            symmetryPlane;
        inGroups        List<word> 1(symmetryPlane);
        nFaces          0;
        startFace       1163;
    }
    bottom
    {
        type            symmetryPlane;
        inGroups        List<word> 1(symmetryPlane);
        nFaces          0;
        startFace       1163;
    }
    defaultFaces
    {
        type            empty;
        inGroups        List<word> 1(empty);
        nFaces          1214;
        startFace       1163;
    }
    procBoundary30to21
    {
        type            processor;
        inGroups        List<word> 1(processor);
        nFaces          1;
        startFace       2377;
        matchTolerance  0.0001;
        transform       unknown;
        myProcNo        30;
        neighbProcNo    21;
    }
    procBoundary30to22
    {
        type            processor;
        inGroups        List<word> 1(processor);
        nFaces          23;
        startFace       2378;
        matchTolerance  0.0001;
        transform       unknown;
        myProcNo        30;
        neighbProcNo    22;
    }
    procBoundary30to23
    {
        type            processor;
        inGroups        List<word> 1(processor);
        nFaces          2;
        startFace       2401;
        matchTolerance  0.0001;
        transform       unknown;
        myProcNo        30;
        neighbProcNo    23;
    }
    procBoundary30to29
    {
        type            processor;
        inGroups        List<word> 1(processor);
        nFaces          26;
        startFace       2403;
        matchTolerance  0.0001;
        transform       unknown;
        myProcNo        30;
        neighbProcNo    29;
    }
    procBoundary30to31
    {
        type            processor;
        inGroups        List<word> 1(processor);
        nFaces          26;
        startFace       2429;
        matchTolerance  0.0001;
        transform       unknown;
        myProcNo        30;
        neighbProcNo    31;
    }
    procBoundary30to38
    {
        type            processor;
        inGroups        List<word> 1(processor);
        nFaces          24;
        startFace       2455;
        matchTolerance  0.0001;
        transform       unknown;
        myProcNo        30;
        neighbProcNo    38;
    }
)

// ************************************************************************* //
