/*--------------------------------*- C++ -*----------------------------------*\
  =========                 |
  \\      /  F ield         | OpenFOAM: The Open Source CFD Toolbox
   \\    /   O peration     | Website:  https://openfoam.org
    \\  /    A nd           | Version:  7
     \\/     M anipulation  |
\*---------------------------------------------------------------------------*/
FoamFile
{
    version     2.0;
    format      ascii;
    class       polyBoundaryMesh;
    location    "constant/polyMesh";
    object      boundary;
}
// * * * * * * * * * * * * * * * * * * * * * * * * * * * * * * * * * * * * * //

11
(
    inlet
    {
        type            patch;
        nFaces          0;
        startFace       725;
    }
    outlet
    {
        type            patch;
        nFaces          0;
        startFace       725;
    }
    cylinder
    {
        type            wall;
        inGroups        List<word> 1(wall);
        nFaces          0;
        startFace       725;
    }
    top
    {
        type            symmetryPlane;
        inGroups        List<word> 1(symmetryPlane);
        nFaces          0;
        startFace       725;
    }
    bottom
    {
        type            symmetryPlane;
        inGroups        List<word> 1(symmetryPlane);
        nFaces          0;
        startFace       725;
    }
    defaultFaces
    {
        type            empty;
        inGroups        List<word> 1(empty);
        nFaces          770;
        startFace       725;
    }
    procBoundary21to13
    {
        type            processor;
        inGroups        List<word> 1(processor);
        nFaces          20;
        startFace       1495;
        matchTolerance  0.0001;
        transform       unknown;
        myProcNo        21;
        neighbProcNo    13;
    }
    procBoundary21to14
    {
        type            processor;
        inGroups        List<word> 1(processor);
        nFaces          11;
        startFace       1515;
        matchTolerance  0.0001;
        transform       unknown;
        myProcNo        21;
        neighbProcNo    14;
    }
    procBoundary21to20
    {
        type            processor;
        inGroups        List<word> 1(processor);
        nFaces          24;
        startFace       1526;
        matchTolerance  0.0001;
        transform       unknown;
        myProcNo        21;
        neighbProcNo    20;
    }
    procBoundary21to22
    {
        type            processor;
        inGroups        List<word> 1(processor);
        nFaces          19;
        startFace       1550;
        matchTolerance  0.0001;
        transform       unknown;
        myProcNo        21;
        neighbProcNo    22;
    }
    procBoundary21to29
    {
        type            processor;
        inGroups        List<word> 1(processor);
        nFaces          16;
        startFace       1569;
        matchTolerance  0.0001;
        transform       unknown;
        myProcNo        21;
        neighbProcNo    29;
    }
)

// ************************************************************************* //
