/*--------------------------------*- C++ -*----------------------------------*\
  =========                 |
  \\      /  F ield         | OpenFOAM: The Open Source CFD Toolbox
   \\    /   O peration     | Website:  https://openfoam.org
    \\  /    A nd           | Version:  7
     \\/     M anipulation  |
\*---------------------------------------------------------------------------*/
FoamFile
{
    version     2.0;
    format      ascii;
    class       polyBoundaryMesh;
    location    "constant/polyMesh";
    object      boundary;
}
// * * * * * * * * * * * * * * * * * * * * * * * * * * * * * * * * * * * * * //

9
(
    inlet
    {
        type            patch;
        nFaces          0;
        startFace       739;
    }
    outlet
    {
        type            patch;
        nFaces          0;
        startFace       739;
    }
    cylinder
    {
        type            wall;
        inGroups        List<word> 1(wall);
        nFaces          0;
        startFace       739;
    }
    top
    {
        type            symmetryPlane;
        inGroups        List<word> 1(symmetryPlane);
        nFaces          18;
        startFace       739;
    }
    bottom
    {
        type            symmetryPlane;
        inGroups        List<word> 1(symmetryPlane);
        nFaces          0;
        startFace       757;
    }
    defaultFaces
    {
        type            empty;
        inGroups        List<word> 1(empty);
        nFaces          780;
        startFace       757;
    }
    procBoundary53to45
    {
        type            processor;
        inGroups        List<word> 1(processor);
        nFaces          20;
        startFace       1537;
        matchTolerance  0.0001;
        transform       unknown;
        myProcNo        53;
        neighbProcNo    45;
    }
    procBoundary53to52
    {
        type            processor;
        inGroups        List<word> 1(processor);
        nFaces          22;
        startFace       1557;
        matchTolerance  0.0001;
        transform       unknown;
        myProcNo        53;
        neighbProcNo    52;
    }
    procBoundary53to54
    {
        type            processor;
        inGroups        List<word> 1(processor);
        nFaces          22;
        startFace       1579;
        matchTolerance  0.0001;
        transform       unknown;
        myProcNo        53;
        neighbProcNo    54;
    }
)

// ************************************************************************* //
