/*--------------------------------*- C++ -*----------------------------------*\
  =========                 |
  \\      /  F ield         | OpenFOAM: The Open Source CFD Toolbox
   \\    /   O peration     | Website:  https://openfoam.org
    \\  /    A nd           | Version:  7
     \\/     M anipulation  |
\*---------------------------------------------------------------------------*/
FoamFile
{
    version     2.0;
    format      ascii;
    class       polyBoundaryMesh;
    location    "constant/polyMesh";
    object      boundary;
}
// * * * * * * * * * * * * * * * * * * * * * * * * * * * * * * * * * * * * * //

10
(
    inlet
    {
        type            patch;
        nFaces          0;
        startFace       1162;
    }
    outlet
    {
        type            patch;
        nFaces          29;
        startFace       1162;
    }
    cylinder
    {
        type            wall;
        inGroups        List<word> 1(wall);
        nFaces          0;
        startFace       1191;
    }
    top
    {
        type            symmetryPlane;
        inGroups        List<word> 1(symmetryPlane);
        nFaces          0;
        startFace       1191;
    }
    bottom
    {
        type            symmetryPlane;
        inGroups        List<word> 1(symmetryPlane);
        nFaces          0;
        startFace       1191;
    }
    defaultFaces
    {
        type            empty;
        inGroups        List<word> 1(empty);
        nFaces          1214;
        startFace       1191;
    }
    procBoundary23to15
    {
        type            processor;
        inGroups        List<word> 1(processor);
        nFaces          22;
        startFace       2405;
        matchTolerance  0.0001;
        transform       unknown;
        myProcNo        23;
        neighbProcNo    15;
    }
    procBoundary23to22
    {
        type            processor;
        inGroups        List<word> 1(processor);
        nFaces          28;
        startFace       2427;
        matchTolerance  0.0001;
        transform       unknown;
        myProcNo        23;
        neighbProcNo    22;
    }
    procBoundary23to30
    {
        type            processor;
        inGroups        List<word> 1(processor);
        nFaces          2;
        startFace       2455;
        matchTolerance  0.0001;
        transform       unknown;
        myProcNo        23;
        neighbProcNo    30;
    }
    procBoundary23to31
    {
        type            processor;
        inGroups        List<word> 1(processor);
        nFaces          23;
        startFace       2457;
        matchTolerance  0.0001;
        transform       unknown;
        myProcNo        23;
        neighbProcNo    31;
    }
)

// ************************************************************************* //
