/*--------------------------------*- C++ -*----------------------------------*\
  =========                 |
  \\      /  F ield         | OpenFOAM: The Open Source CFD Toolbox
   \\    /   O peration     | Website:  https://openfoam.org
    \\  /    A nd           | Version:  7
     \\/     M anipulation  |
\*---------------------------------------------------------------------------*/
FoamFile
{
    version     2.0;
    format      ascii;
    class       polyBoundaryMesh;
    location    "constant/polyMesh";
    object      boundary;
}
// * * * * * * * * * * * * * * * * * * * * * * * * * * * * * * * * * * * * * //

12
(
    inlet
    {
        type            patch;
        nFaces          0;
        startFace       1163;
    }
    outlet
    {
        type            patch;
        nFaces          0;
        startFace       1163;
    }
    cylinder
    {
        type            wall;
        inGroups        List<word> 1(wall);
        nFaces          0;
        startFace       1163;
    }
    top
    {
        type            symmetryPlane;
        inGroups        List<word> 1(symmetryPlane);
        nFaces          0;
        startFace       1163;
    }
    bottom
    {
        type            symmetryPlane;
        inGroups        List<word> 1(symmetryPlane);
        nFaces          0;
        startFace       1163;
    }
    defaultFaces
    {
        type            empty;
        inGroups        List<word> 1(empty);
        nFaces          1214;
        startFace       1163;
    }
    procBoundary41to33
    {
        type            processor;
        inGroups        List<word> 1(processor);
        nFaces          26;
        startFace       2377;
        matchTolerance  0.0001;
        transform       unknown;
        myProcNo        41;
        neighbProcNo    33;
    }
    procBoundary41to40
    {
        type            processor;
        inGroups        List<word> 1(processor);
        nFaces          22;
        startFace       2403;
        matchTolerance  0.0001;
        transform       unknown;
        myProcNo        41;
        neighbProcNo    40;
    }
    procBoundary41to42
    {
        type            processor;
        inGroups        List<word> 1(processor);
        nFaces          24;
        startFace       2425;
        matchTolerance  0.0001;
        transform       unknown;
        myProcNo        41;
        neighbProcNo    42;
    }
    procBoundary41to48
    {
        type            processor;
        inGroups        List<word> 1(processor);
        nFaces          3;
        startFace       2449;
        matchTolerance  0.0001;
        transform       unknown;
        myProcNo        41;
        neighbProcNo    48;
    }
    procBoundary41to49
    {
        type            processor;
        inGroups        List<word> 1(processor);
        nFaces          24;
        startFace       2452;
        matchTolerance  0.0001;
        transform       unknown;
        myProcNo        41;
        neighbProcNo    49;
    }
    procBoundary41to50
    {
        type            processor;
        inGroups        List<word> 1(processor);
        nFaces          3;
        startFace       2476;
        matchTolerance  0.0001;
        transform       unknown;
        myProcNo        41;
        neighbProcNo    50;
    }
)

// ************************************************************************* //
