/*--------------------------------*- C++ -*----------------------------------*\
  =========                 |
  \\      /  F ield         | OpenFOAM: The Open Source CFD Toolbox
   \\    /   O peration     | Website:  https://openfoam.org
    \\  /    A nd           | Version:  7
     \\/     M anipulation  |
\*---------------------------------------------------------------------------*/
FoamFile
{
    version     2.0;
    format      ascii;
    class       polyBoundaryMesh;
    location    "constant/polyMesh";
    object      boundary;
}
// * * * * * * * * * * * * * * * * * * * * * * * * * * * * * * * * * * * * * //

13
(
    inlet
    {
        type            patch;
        nFaces          0;
        startFace       4709;
    }
    outlet
    {
        type            patch;
        nFaces          0;
        startFace       4709;
    }
    bottom
    {
        type            symmetryPlane;
        inGroups        List<word> 1(symmetryPlane);
        nFaces          0;
        startFace       4709;
    }
    top
    {
        type            symmetryPlane;
        inGroups        List<word> 1(symmetryPlane);
        nFaces          0;
        startFace       4709;
    }
    obstacle
    {
        type            patch;
        nFaces          0;
        startFace       4709;
    }
    front
    {
        type            empty;
        inGroups        List<word> 1(empty);
        nFaces          2413;
        startFace       4709;
    }
    back
    {
        type            empty;
        inGroups        List<word> 1(empty);
        nFaces          2413;
        startFace       7122;
    }
    procBoundary19to2
    {
        type            processor;
        inGroups        List<word> 1(processor);
        nFaces          23;
        startFace       9535;
        matchTolerance  0.0001;
        transform       unknown;
        myProcNo        19;
        neighbProcNo    2;
    }
    procBoundary19to10
    {
        type            processor;
        inGroups        List<word> 1(processor);
        nFaces          5;
        startFace       9558;
        matchTolerance  0.0001;
        transform       unknown;
        myProcNo        19;
        neighbProcNo    10;
    }
    procBoundary19to11
    {
        type            processor;
        inGroups        List<word> 1(processor);
        nFaces          89;
        startFace       9563;
        matchTolerance  0.0001;
        transform       unknown;
        myProcNo        19;
        neighbProcNo    11;
    }
    procBoundary19to12
    {
        type            processor;
        inGroups        List<word> 1(processor);
        nFaces          1;
        startFace       9652;
        matchTolerance  0.0001;
        transform       unknown;
        myProcNo        19;
        neighbProcNo    12;
    }
    procBoundary19to20
    {
        type            processor;
        inGroups        List<word> 1(processor);
        nFaces          27;
        startFace       9653;
        matchTolerance  0.0001;
        transform       unknown;
        myProcNo        19;
        neighbProcNo    20;
    }
    procBoundary19to27
    {
        type            processor;
        inGroups        List<word> 1(processor);
        nFaces          89;
        startFace       9680;
        matchTolerance  0.0001;
        transform       unknown;
        myProcNo        19;
        neighbProcNo    27;
    }
)

// ************************************************************************* //
