/*--------------------------------*- C++ -*----------------------------------*\
  =========                 |
  \\      /  F ield         | OpenFOAM: The Open Source CFD Toolbox
   \\    /   O peration     | Website:  https://openfoam.org
    \\  /    A nd           | Version:  7
     \\/     M anipulation  |
\*---------------------------------------------------------------------------*/
FoamFile
{
    version     2.0;
    format      ascii;
    class       polyBoundaryMesh;
    location    "constant/polyMesh";
    object      boundary;
}
// * * * * * * * * * * * * * * * * * * * * * * * * * * * * * * * * * * * * * //

12
(
    inlet
    {
        type            patch;
        nFaces          0;
        startFace       717;
    }
    outlet
    {
        type            patch;
        nFaces          0;
        startFace       717;
    }
    cylinder
    {
        type            wall;
        inGroups        List<word> 1(wall);
        nFaces          0;
        startFace       717;
    }
    top
    {
        type            symmetryPlane;
        inGroups        List<word> 1(symmetryPlane);
        nFaces          0;
        startFace       717;
    }
    bottom
    {
        type            symmetryPlane;
        inGroups        List<word> 1(symmetryPlane);
        nFaces          0;
        startFace       717;
    }
    defaultFaces
    {
        type            empty;
        inGroups        List<word> 1(empty);
        nFaces          770;
        startFace       717;
    }
    procBoundary33to25
    {
        type            processor;
        inGroups        List<word> 1(processor);
        nFaces          22;
        startFace       1487;
        matchTolerance  0.0001;
        transform       unknown;
        myProcNo        33;
        neighbProcNo    25;
    }
    procBoundary33to32
    {
        type            processor;
        inGroups        List<word> 1(processor);
        nFaces          25;
        startFace       1509;
        matchTolerance  0.0001;
        transform       unknown;
        myProcNo        33;
        neighbProcNo    32;
    }
    procBoundary33to34
    {
        type            processor;
        inGroups        List<word> 1(processor);
        nFaces          32;
        startFace       1534;
        matchTolerance  0.0001;
        transform       unknown;
        myProcNo        33;
        neighbProcNo    34;
    }
    procBoundary33to40
    {
        type            processor;
        inGroups        List<word> 1(processor);
        nFaces          5;
        startFace       1566;
        matchTolerance  0.0001;
        transform       unknown;
        myProcNo        33;
        neighbProcNo    40;
    }
    procBoundary33to41
    {
        type            processor;
        inGroups        List<word> 1(processor);
        nFaces          19;
        startFace       1571;
        matchTolerance  0.0001;
        transform       unknown;
        myProcNo        33;
        neighbProcNo    41;
    }
    procBoundary33to42
    {
        type            processor;
        inGroups        List<word> 1(processor);
        nFaces          3;
        startFace       1590;
        matchTolerance  0.0001;
        transform       unknown;
        myProcNo        33;
        neighbProcNo    42;
    }
)

// ************************************************************************* //
