/*--------------------------------*- C++ -*----------------------------------*\
  =========                 |
  \\      /  F ield         | OpenFOAM: The Open Source CFD Toolbox
   \\    /   O peration     | Website:  https://openfoam.org
    \\  /    A nd           | Version:  7
     \\/     M anipulation  |
\*---------------------------------------------------------------------------*/
FoamFile
{
    version     2.0;
    format      ascii;
    class       polyBoundaryMesh;
    location    "constant/polyMesh";
    object      boundary;
}
// * * * * * * * * * * * * * * * * * * * * * * * * * * * * * * * * * * * * * //

13
(
    inlet
    {
        type            patch;
        nFaces          0;
        startFace       4678;
    }
    outlet
    {
        type            patch;
        nFaces          0;
        startFace       4678;
    }
    bottom
    {
        type            symmetryPlane;
        inGroups        List<word> 1(symmetryPlane);
        nFaces          0;
        startFace       4678;
    }
    top
    {
        type            symmetryPlane;
        inGroups        List<word> 1(symmetryPlane);
        nFaces          0;
        startFace       4678;
    }
    obstacle
    {
        type            patch;
        nFaces          0;
        startFace       4678;
    }
    front
    {
        type            empty;
        inGroups        List<word> 1(empty);
        nFaces          2413;
        startFace       4678;
    }
    back
    {
        type            empty;
        inGroups        List<word> 1(empty);
        nFaces          2413;
        startFace       7091;
    }
    procBoundary34to25
    {
        type            processor;
        inGroups        List<word> 1(processor);
        nFaces          1;
        startFace       9504;
        matchTolerance  0.0001;
        transform       unknown;
        myProcNo        34;
        neighbProcNo    25;
    }
    procBoundary34to26
    {
        type            processor;
        inGroups        List<word> 1(processor);
        nFaces          129;
        startFace       9505;
        matchTolerance  0.0001;
        transform       unknown;
        myProcNo        34;
        neighbProcNo    26;
    }
    procBoundary34to33
    {
        type            processor;
        inGroups        List<word> 1(processor);
        nFaces          18;
        startFace       9634;
        matchTolerance  0.0001;
        transform       unknown;
        myProcNo        34;
        neighbProcNo    33;
    }
    procBoundary34to35
    {
        type            processor;
        inGroups        List<word> 1(processor);
        nFaces          3;
        startFace       9652;
        matchTolerance  0.0001;
        transform       unknown;
        myProcNo        34;
        neighbProcNo    35;
    }
    procBoundary34to42
    {
        type            processor;
        inGroups        List<word> 1(processor);
        nFaces          129;
        startFace       9655;
        matchTolerance  0.0001;
        transform       unknown;
        myProcNo        34;
        neighbProcNo    42;
    }
    procBoundary34to43
    {
        type            processor;
        inGroups        List<word> 1(processor);
        nFaces          16;
        startFace       9784;
        matchTolerance  0.0001;
        transform       unknown;
        myProcNo        34;
        neighbProcNo    43;
    }
)

// ************************************************************************* //
