/*--------------------------------*- C++ -*----------------------------------*\
  =========                 |
  \\      /  F ield         | OpenFOAM: The Open Source CFD Toolbox
   \\    /   O peration     | Website:  https://openfoam.org
    \\  /    A nd           | Version:  7
     \\/     M anipulation  |
\*---------------------------------------------------------------------------*/
FoamFile
{
    version     2.0;
    format      ascii;
    class       polyBoundaryMesh;
    location    "constant/polyMesh";
    object      boundary;
}
// * * * * * * * * * * * * * * * * * * * * * * * * * * * * * * * * * * * * * //

12
(
    inlet
    {
        type            patch;
        nFaces          0;
        startFace       4619;
    }
    outlet
    {
        type            patch;
        nFaces          0;
        startFace       4619;
    }
    bottom
    {
        type            symmetryPlane;
        inGroups        List<word> 1(symmetryPlane);
        nFaces          8;
        startFace       4619;
    }
    top
    {
        type            symmetryPlane;
        inGroups        List<word> 1(symmetryPlane);
        nFaces          0;
        startFace       4627;
    }
    obstacle
    {
        type            patch;
        nFaces          184;
        startFace       4627;
    }
    front
    {
        type            empty;
        inGroups        List<word> 1(empty);
        nFaces          2413;
        startFace       4811;
    }
    back
    {
        type            empty;
        inGroups        List<word> 1(empty);
        nFaces          2413;
        startFace       7224;
    }
    procBoundary5to4
    {
        type            processor;
        inGroups        List<word> 1(processor);
        nFaces          27;
        startFace       9637;
        matchTolerance  0.0001;
        transform       unknown;
        myProcNo        5;
        neighbProcNo    4;
    }
    procBoundary5to6
    {
        type            processor;
        inGroups        List<word> 1(processor);
        nFaces          14;
        startFace       9664;
        matchTolerance  0.0001;
        transform       unknown;
        myProcNo        5;
        neighbProcNo    6;
    }
    procBoundary5to12
    {
        type            processor;
        inGroups        List<word> 1(processor);
        nFaces          27;
        startFace       9678;
        matchTolerance  0.0001;
        transform       unknown;
        myProcNo        5;
        neighbProcNo    12;
    }
    procBoundary5to13
    {
        type            processor;
        inGroups        List<word> 1(processor);
        nFaces          129;
        startFace       9705;
        matchTolerance  0.0001;
        transform       unknown;
        myProcNo        5;
        neighbProcNo    13;
    }
    procBoundary5to20
    {
        type            processor;
        inGroups        List<word> 1(processor);
        nFaces          25;
        startFace       9834;
        matchTolerance  0.0001;
        transform       unknown;
        myProcNo        5;
        neighbProcNo    20;
    }
)

// ************************************************************************* //
