/*--------------------------------*- C++ -*----------------------------------*\
  =========                 |
  \\      /  F ield         | OpenFOAM: The Open Source CFD Toolbox
   \\    /   O peration     | Website:  https://openfoam.org
    \\  /    A nd           | Version:  7
     \\/     M anipulation  |
\*---------------------------------------------------------------------------*/
FoamFile
{
    version     2.0;
    format      ascii;
    class       polyBoundaryMesh;
    location    "constant/polyMesh";
    object      boundary;
}
// * * * * * * * * * * * * * * * * * * * * * * * * * * * * * * * * * * * * * //

13
(
    inlet
    {
        type            patch;
        nFaces          0;
        startFace       4674;
    }
    outlet
    {
        type            patch;
        nFaces          0;
        startFace       4674;
    }
    bottom
    {
        type            symmetryPlane;
        inGroups        List<word> 1(symmetryPlane);
        nFaces          0;
        startFace       4674;
    }
    top
    {
        type            symmetryPlane;
        inGroups        List<word> 1(symmetryPlane);
        nFaces          0;
        startFace       4674;
    }
    obstacle
    {
        type            patch;
        nFaces          0;
        startFace       4674;
    }
    front
    {
        type            empty;
        inGroups        List<word> 1(empty);
        nFaces          2413;
        startFace       4674;
    }
    back
    {
        type            empty;
        inGroups        List<word> 1(empty);
        nFaces          2413;
        startFace       7087;
    }
    procBoundary30to22
    {
        type            processor;
        inGroups        List<word> 1(processor);
        nFaces          133;
        startFace       9500;
        matchTolerance  0.0001;
        transform       unknown;
        myProcNo        30;
        neighbProcNo    22;
    }
    procBoundary30to23
    {
        type            processor;
        inGroups        List<word> 1(processor);
        nFaces          1;
        startFace       9633;
        matchTolerance  0.0001;
        transform       unknown;
        myProcNo        30;
        neighbProcNo    23;
    }
    procBoundary30to29
    {
        type            processor;
        inGroups        List<word> 1(processor);
        nFaces          16;
        startFace       9634;
        matchTolerance  0.0001;
        transform       unknown;
        myProcNo        30;
        neighbProcNo    29;
    }
    procBoundary30to31
    {
        type            processor;
        inGroups        List<word> 1(processor);
        nFaces          18;
        startFace       9650;
        matchTolerance  0.0001;
        transform       unknown;
        myProcNo        30;
        neighbProcNo    31;
    }
    procBoundary30to37
    {
        type            processor;
        inGroups        List<word> 1(processor);
        nFaces          3;
        startFace       9668;
        matchTolerance  0.0001;
        transform       unknown;
        myProcNo        30;
        neighbProcNo    37;
    }
    procBoundary30to38
    {
        type            processor;
        inGroups        List<word> 1(processor);
        nFaces          133;
        startFace       9671;
        matchTolerance  0.0001;
        transform       unknown;
        myProcNo        30;
        neighbProcNo    38;
    }
)

// ************************************************************************* //
