/*--------------------------------*- C++ -*----------------------------------*\
  =========                 |
  \\      /  F ield         | OpenFOAM: The Open Source CFD Toolbox
   \\    /   O peration     | Website:  https://openfoam.org
    \\  /    A nd           | Version:  7
     \\/     M anipulation  |
\*---------------------------------------------------------------------------*/
FoamFile
{
    version     2.0;
    format      ascii;
    class       polyBoundaryMesh;
    location    "constant/polyMesh";
    object      boundary;
}
// * * * * * * * * * * * * * * * * * * * * * * * * * * * * * * * * * * * * * //

12
(
    inlet
    {
        type            patch;
        nFaces          0;
        startFace       727;
    }
    outlet
    {
        type            patch;
        nFaces          0;
        startFace       727;
    }
    cylinder
    {
        type            wall;
        inGroups        List<word> 1(wall);
        nFaces          0;
        startFace       727;
    }
    top
    {
        type            symmetryPlane;
        inGroups        List<word> 1(symmetryPlane);
        nFaces          0;
        startFace       727;
    }
    bottom
    {
        type            symmetryPlane;
        inGroups        List<word> 1(symmetryPlane);
        nFaces          0;
        startFace       727;
    }
    defaultFaces
    {
        type            empty;
        inGroups        List<word> 1(empty);
        nFaces          770;
        startFace       727;
    }
    procBoundary42to33
    {
        type            processor;
        inGroups        List<word> 1(processor);
        nFaces          3;
        startFace       1497;
        matchTolerance  0.0001;
        transform       unknown;
        myProcNo        42;
        neighbProcNo    33;
    }
    procBoundary42to34
    {
        type            processor;
        inGroups        List<word> 1(processor);
        nFaces          16;
        startFace       1500;
        matchTolerance  0.0001;
        transform       unknown;
        myProcNo        42;
        neighbProcNo    34;
    }
    procBoundary42to41
    {
        type            processor;
        inGroups        List<word> 1(processor);
        nFaces          24;
        startFace       1516;
        matchTolerance  0.0001;
        transform       unknown;
        myProcNo        42;
        neighbProcNo    41;
    }
    procBoundary42to43
    {
        type            processor;
        inGroups        List<word> 1(processor);
        nFaces          24;
        startFace       1540;
        matchTolerance  0.0001;
        transform       unknown;
        myProcNo        42;
        neighbProcNo    43;
    }
    procBoundary42to50
    {
        type            processor;
        inGroups        List<word> 1(processor);
        nFaces          15;
        startFace       1564;
        matchTolerance  0.0001;
        transform       unknown;
        myProcNo        42;
        neighbProcNo    50;
    }
    procBoundary42to51
    {
        type            processor;
        inGroups        List<word> 1(processor);
        nFaces          4;
        startFace       1579;
        matchTolerance  0.0001;
        transform       unknown;
        myProcNo        42;
        neighbProcNo    51;
    }
)

// ************************************************************************* //
