/*--------------------------------*- C++ -*----------------------------------*\
  =========                 |
  \\      /  F ield         | OpenFOAM: The Open Source CFD Toolbox
   \\    /   O peration     | Website:  https://openfoam.org
    \\  /    A nd           | Version:  7
     \\/     M anipulation  |
\*---------------------------------------------------------------------------*/
FoamFile
{
    version     2.0;
    format      ascii;
    class       polyBoundaryMesh;
    location    "constant/polyMesh";
    object      boundary;
}
// * * * * * * * * * * * * * * * * * * * * * * * * * * * * * * * * * * * * * //

11
(
    inlet
    {
        type            patch;
        nFaces          0;
        startFace       4675;
    }
    outlet
    {
        type            patch;
        nFaces          18;
        startFace       4675;
    }
    bottom
    {
        type            symmetryPlane;
        inGroups        List<word> 1(symmetryPlane);
        nFaces          0;
        startFace       4693;
    }
    top
    {
        type            symmetryPlane;
        inGroups        List<word> 1(symmetryPlane);
        nFaces          0;
        startFace       4693;
    }
    obstacle
    {
        type            patch;
        nFaces          0;
        startFace       4693;
    }
    front
    {
        type            empty;
        inGroups        List<word> 1(empty);
        nFaces          2413;
        startFace       4693;
    }
    back
    {
        type            empty;
        inGroups        List<word> 1(empty);
        nFaces          2413;
        startFace       7106;
    }
    procBoundary39to31
    {
        type            processor;
        inGroups        List<word> 1(processor);
        nFaces          133;
        startFace       9519;
        matchTolerance  0.0001;
        transform       unknown;
        myProcNo        39;
        neighbProcNo    31;
    }
    procBoundary39to38
    {
        type            processor;
        inGroups        List<word> 1(processor);
        nFaces          17;
        startFace       9652;
        matchTolerance  0.0001;
        transform       unknown;
        myProcNo        39;
        neighbProcNo    38;
    }
    procBoundary39to46
    {
        type            processor;
        inGroups        List<word> 1(processor);
        nFaces          1;
        startFace       9669;
        matchTolerance  0.0001;
        transform       unknown;
        myProcNo        39;
        neighbProcNo    46;
    }
    procBoundary39to47
    {
        type            processor;
        inGroups        List<word> 1(processor);
        nFaces          133;
        startFace       9670;
        matchTolerance  0.0001;
        transform       unknown;
        myProcNo        39;
        neighbProcNo    47;
    }
)

// ************************************************************************* //
