/*--------------------------------*- C++ -*----------------------------------*\
  =========                 |
  \\      /  F ield         | OpenFOAM: The Open Source CFD Toolbox
   \\    /   O peration     | Website:  https://openfoam.org
    \\  /    A nd           | Version:  7
     \\/     M anipulation  |
\*---------------------------------------------------------------------------*/
FoamFile
{
    version     2.0;
    format      ascii;
    class       polyBoundaryMesh;
    location    "constant/polyMesh";
    object      boundary;
}
// * * * * * * * * * * * * * * * * * * * * * * * * * * * * * * * * * * * * * //

14
(
    inlet
    {
        type            patch;
        nFaces          0;
        startFace       708;
    }
    outlet
    {
        type            patch;
        nFaces          0;
        startFace       708;
    }
    cylinder
    {
        type            wall;
        inGroups        List<word> 1(wall);
        nFaces          0;
        startFace       708;
    }
    top
    {
        type            symmetryPlane;
        inGroups        List<word> 1(symmetryPlane);
        nFaces          0;
        startFace       708;
    }
    bottom
    {
        type            symmetryPlane;
        inGroups        List<word> 1(symmetryPlane);
        nFaces          0;
        startFace       708;
    }
    defaultFaces
    {
        type            empty;
        inGroups        List<word> 1(empty);
        nFaces          770;
        startFace       708;
    }
    procBoundary25to16
    {
        type            processor;
        inGroups        List<word> 1(processor);
        nFaces          5;
        startFace       1478;
        matchTolerance  0.0001;
        transform       unknown;
        myProcNo        25;
        neighbProcNo    16;
    }
    procBoundary25to17
    {
        type            processor;
        inGroups        List<word> 1(processor);
        nFaces          20;
        startFace       1483;
        matchTolerance  0.0001;
        transform       unknown;
        myProcNo        25;
        neighbProcNo    17;
    }
    procBoundary25to18
    {
        type            processor;
        inGroups        List<word> 1(processor);
        nFaces          10;
        startFace       1503;
        matchTolerance  0.0001;
        transform       unknown;
        myProcNo        25;
        neighbProcNo    18;
    }
    procBoundary25to24
    {
        type            processor;
        inGroups        List<word> 1(processor);
        nFaces          23;
        startFace       1513;
        matchTolerance  0.0001;
        transform       unknown;
        myProcNo        25;
        neighbProcNo    24;
    }
    procBoundary25to26
    {
        type            processor;
        inGroups        List<word> 1(processor);
        nFaces          32;
        startFace       1536;
        matchTolerance  0.0001;
        transform       unknown;
        myProcNo        25;
        neighbProcNo    26;
    }
    procBoundary25to32
    {
        type            processor;
        inGroups        List<word> 1(processor);
        nFaces          2;
        startFace       1568;
        matchTolerance  0.0001;
        transform       unknown;
        myProcNo        25;
        neighbProcNo    32;
    }
    procBoundary25to33
    {
        type            processor;
        inGroups        List<word> 1(processor);
        nFaces          22;
        startFace       1570;
        matchTolerance  0.0001;
        transform       unknown;
        myProcNo        25;
        neighbProcNo    33;
    }
    procBoundary25to34
    {
        type            processor;
        inGroups        List<word> 1(processor);
        nFaces          10;
        startFace       1592;
        matchTolerance  0.0001;
        transform       unknown;
        myProcNo        25;
        neighbProcNo    34;
    }
)

// ************************************************************************* //
