/*--------------------------------*- C++ -*----------------------------------*\
  =========                 |
  \\      /  F ield         | OpenFOAM: The Open Source CFD Toolbox
   \\    /   O peration     | Website:  https://openfoam.org
    \\  /    A nd           | Version:  7
     \\/     M anipulation  |
\*---------------------------------------------------------------------------*/
FoamFile
{
    version     2.0;
    format      ascii;
    class       polyBoundaryMesh;
    location    "constant/polyMesh";
    object      boundary;
}
// * * * * * * * * * * * * * * * * * * * * * * * * * * * * * * * * * * * * * //

12
(
    inlet
    {
        type            patch;
        nFaces          0;
        startFace       727;
    }
    outlet
    {
        type            patch;
        nFaces          0;
        startFace       727;
    }
    cylinder
    {
        type            wall;
        inGroups        List<word> 1(wall);
        nFaces          0;
        startFace       727;
    }
    top
    {
        type            symmetryPlane;
        inGroups        List<word> 1(symmetryPlane);
        nFaces          0;
        startFace       727;
    }
    bottom
    {
        type            symmetryPlane;
        inGroups        List<word> 1(symmetryPlane);
        nFaces          0;
        startFace       727;
    }
    defaultFaces
    {
        type            empty;
        inGroups        List<word> 1(empty);
        nFaces          770;
        startFace       727;
    }
    procBoundary46to37
    {
        type            processor;
        inGroups        List<word> 1(processor);
        nFaces          16;
        startFace       1497;
        matchTolerance  0.0001;
        transform       unknown;
        myProcNo        46;
        neighbProcNo    37;
    }
    procBoundary46to38
    {
        type            processor;
        inGroups        List<word> 1(processor);
        nFaces          14;
        startFace       1513;
        matchTolerance  0.0001;
        transform       unknown;
        myProcNo        46;
        neighbProcNo    38;
    }
    procBoundary46to39
    {
        type            processor;
        inGroups        List<word> 1(processor);
        nFaces          5;
        startFace       1527;
        matchTolerance  0.0001;
        transform       unknown;
        myProcNo        46;
        neighbProcNo    39;
    }
    procBoundary46to45
    {
        type            processor;
        inGroups        List<word> 1(processor);
        nFaces          13;
        startFace       1532;
        matchTolerance  0.0001;
        transform       unknown;
        myProcNo        46;
        neighbProcNo    45;
    }
    procBoundary46to47
    {
        type            processor;
        inGroups        List<word> 1(processor);
        nFaces          25;
        startFace       1545;
        matchTolerance  0.0001;
        transform       unknown;
        myProcNo        46;
        neighbProcNo    47;
    }
    procBoundary46to54
    {
        type            processor;
        inGroups        List<word> 1(processor);
        nFaces          13;
        startFace       1570;
        matchTolerance  0.0001;
        transform       unknown;
        myProcNo        46;
        neighbProcNo    54;
    }
)

// ************************************************************************* //
