/*--------------------------------*- C++ -*----------------------------------*\
  =========                 |
  \\      /  F ield         | OpenFOAM: The Open Source CFD Toolbox
   \\    /   O peration     | Website:  https://openfoam.org
    \\  /    A nd           | Version:  7
     \\/     M anipulation  |
\*---------------------------------------------------------------------------*/
FoamFile
{
    version     2.0;
    format      ascii;
    class       polyBoundaryMesh;
    location    "constant/polyMesh";
    object      boundary;
}
// * * * * * * * * * * * * * * * * * * * * * * * * * * * * * * * * * * * * * //

13
(
    inlet
    {
        type            patch;
        nFaces          0;
        startFace       4710;
    }
    outlet
    {
        type            patch;
        nFaces          0;
        startFace       4710;
    }
    bottom
    {
        type            symmetryPlane;
        inGroups        List<word> 1(symmetryPlane);
        nFaces          0;
        startFace       4710;
    }
    top
    {
        type            symmetryPlane;
        inGroups        List<word> 1(symmetryPlane);
        nFaces          0;
        startFace       4710;
    }
    obstacle
    {
        type            patch;
        nFaces          0;
        startFace       4710;
    }
    front
    {
        type            empty;
        inGroups        List<word> 1(empty);
        nFaces          2413;
        startFace       4710;
    }
    back
    {
        type            empty;
        inGroups        List<word> 1(empty);
        nFaces          2413;
        startFace       7123;
    }
    procBoundary27to10
    {
        type            processor;
        inGroups        List<word> 1(processor);
        nFaces          14;
        startFace       9536;
        matchTolerance  0.0001;
        transform       unknown;
        myProcNo        27;
        neighbProcNo    10;
    }
    procBoundary27to18
    {
        type            processor;
        inGroups        List<word> 1(processor);
        nFaces          13;
        startFace       9550;
        matchTolerance  0.0001;
        transform       unknown;
        myProcNo        27;
        neighbProcNo    18;
    }
    procBoundary27to19
    {
        type            processor;
        inGroups        List<word> 1(processor);
        nFaces          89;
        startFace       9563;
        matchTolerance  0.0001;
        transform       unknown;
        myProcNo        27;
        neighbProcNo    19;
    }
    procBoundary27to20
    {
        type            processor;
        inGroups        List<word> 1(processor);
        nFaces          1;
        startFace       9652;
        matchTolerance  0.0001;
        transform       unknown;
        myProcNo        27;
        neighbProcNo    20;
    }
    procBoundary27to28
    {
        type            processor;
        inGroups        List<word> 1(processor);
        nFaces          26;
        startFace       9653;
        matchTolerance  0.0001;
        transform       unknown;
        myProcNo        27;
        neighbProcNo    28;
    }
    procBoundary27to35
    {
        type            processor;
        inGroups        List<word> 1(processor);
        nFaces          89;
        startFace       9679;
        matchTolerance  0.0001;
        transform       unknown;
        myProcNo        27;
        neighbProcNo    35;
    }
)

// ************************************************************************* //
