/*--------------------------------*- C++ -*----------------------------------*\
  =========                 |
  \\      /  F ield         | OpenFOAM: The Open Source CFD Toolbox
   \\    /   O peration     | Website:  https://openfoam.org
    \\  /    A nd           | Version:  7
     \\/     M anipulation  |
\*---------------------------------------------------------------------------*/
FoamFile
{
    version     2.0;
    format      ascii;
    class       polyBoundaryMesh;
    location    "constant/polyMesh";
    object      boundary;
}
// * * * * * * * * * * * * * * * * * * * * * * * * * * * * * * * * * * * * * //

11
(
    inlet
    {
        type            patch;
        nFaces          0;
        startFace       1161;
    }
    outlet
    {
        type            patch;
        nFaces          0;
        startFace       1161;
    }
    cylinder
    {
        type            wall;
        inGroups        List<word> 1(wall);
        nFaces          0;
        startFace       1161;
    }
    top
    {
        type            symmetryPlane;
        inGroups        List<word> 1(symmetryPlane);
        nFaces          0;
        startFace       1161;
    }
    bottom
    {
        type            symmetryPlane;
        inGroups        List<word> 1(symmetryPlane);
        nFaces          0;
        startFace       1161;
    }
    defaultFaces
    {
        type            empty;
        inGroups        List<word> 1(empty);
        nFaces          1214;
        startFace       1161;
    }
    procBoundary38to29
    {
        type            processor;
        inGroups        List<word> 1(processor);
        nFaces          2;
        startFace       2375;
        matchTolerance  0.0001;
        transform       unknown;
        myProcNo        38;
        neighbProcNo    29;
    }
    procBoundary38to30
    {
        type            processor;
        inGroups        List<word> 1(processor);
        nFaces          24;
        startFace       2377;
        matchTolerance  0.0001;
        transform       unknown;
        myProcNo        38;
        neighbProcNo    30;
    }
    procBoundary38to37
    {
        type            processor;
        inGroups        List<word> 1(processor);
        nFaces          30;
        startFace       2401;
        matchTolerance  0.0001;
        transform       unknown;
        myProcNo        38;
        neighbProcNo    37;
    }
    procBoundary38to39
    {
        type            processor;
        inGroups        List<word> 1(processor);
        nFaces          28;
        startFace       2431;
        matchTolerance  0.0001;
        transform       unknown;
        myProcNo        38;
        neighbProcNo    39;
    }
    procBoundary38to46
    {
        type            processor;
        inGroups        List<word> 1(processor);
        nFaces          22;
        startFace       2459;
        matchTolerance  0.0001;
        transform       unknown;
        myProcNo        38;
        neighbProcNo    46;
    }
)

// ************************************************************************* //
