/*--------------------------------*- C++ -*----------------------------------*\
  =========                 |
  \\      /  F ield         | OpenFOAM: The Open Source CFD Toolbox
   \\    /   O peration     | Website:  https://openfoam.org
    \\  /    A nd           | Version:  7
     \\/     M anipulation  |
\*---------------------------------------------------------------------------*/
FoamFile
{
    version     2.0;
    format      ascii;
    class       polyBoundaryMesh;
    location    "constant/polyMesh";
    object      boundary;
}
// * * * * * * * * * * * * * * * * * * * * * * * * * * * * * * * * * * * * * //

12
(
    inlet
    {
        type            patch;
        nFaces          0;
        startFace       1119;
    }
    outlet
    {
        type            patch;
        nFaces          0;
        startFace       1119;
    }
    cylinder
    {
        type            wall;
        inGroups        List<word> 1(wall);
        nFaces          0;
        startFace       1119;
    }
    top
    {
        type            symmetryPlane;
        inGroups        List<word> 1(symmetryPlane);
        nFaces          0;
        startFace       1119;
    }
    bottom
    {
        type            symmetryPlane;
        inGroups        List<word> 1(symmetryPlane);
        nFaces          0;
        startFace       1119;
    }
    defaultFaces
    {
        type            empty;
        inGroups        List<word> 1(empty);
        nFaces          1214;
        startFace       1119;
    }
    procBoundary19to11
    {
        type            processor;
        inGroups        List<word> 1(processor);
        nFaces          29;
        startFace       2333;
        matchTolerance  0.0001;
        transform       unknown;
        myProcNo        19;
        neighbProcNo    11;
    }
    procBoundary19to18
    {
        type            processor;
        inGroups        List<word> 1(processor);
        nFaces          32;
        startFace       2362;
        matchTolerance  0.0001;
        transform       unknown;
        myProcNo        19;
        neighbProcNo    18;
    }
    procBoundary19to20
    {
        type            processor;
        inGroups        List<word> 1(processor);
        nFaces          24;
        startFace       2394;
        matchTolerance  0.0001;
        transform       unknown;
        myProcNo        19;
        neighbProcNo    20;
    }
    procBoundary19to26
    {
        type            processor;
        inGroups        List<word> 1(processor);
        nFaces          1;
        startFace       2418;
        matchTolerance  0.0001;
        transform       unknown;
        myProcNo        19;
        neighbProcNo    26;
    }
    procBoundary19to27
    {
        type            processor;
        inGroups        List<word> 1(processor);
        nFaces          87;
        startFace       2419;
        matchTolerance  0.0001;
        transform       unknown;
        myProcNo        19;
        neighbProcNo    27;
    }
    procBoundary19to28
    {
        type            processor;
        inGroups        List<word> 1(processor);
        nFaces          17;
        startFace       2506;
        matchTolerance  0.0001;
        transform       unknown;
        myProcNo        19;
        neighbProcNo    28;
    }
)

// ************************************************************************* //
