/*--------------------------------*- C++ -*----------------------------------*\
  =========                 |
  \\      /  F ield         | OpenFOAM: The Open Source CFD Toolbox
   \\    /   O peration     | Website:  https://openfoam.org
    \\  /    A nd           | Version:  7
     \\/     M anipulation  |
\*---------------------------------------------------------------------------*/
FoamFile
{
    version     2.0;
    format      ascii;
    class       polyBoundaryMesh;
    location    "constant/polyMesh";
    object      boundary;
}
// * * * * * * * * * * * * * * * * * * * * * * * * * * * * * * * * * * * * * //

12
(
    inlet
    {
        type            patch;
        nFaces          0;
        startFace       712;
    }
    outlet
    {
        type            patch;
        nFaces          0;
        startFace       712;
    }
    cylinder
    {
        type            wall;
        inGroups        List<word> 1(wall);
        nFaces          0;
        startFace       712;
    }
    top
    {
        type            symmetryPlane;
        inGroups        List<word> 1(symmetryPlane);
        nFaces          0;
        startFace       712;
    }
    bottom
    {
        type            symmetryPlane;
        inGroups        List<word> 1(symmetryPlane);
        nFaces          0;
        startFace       712;
    }
    defaultFaces
    {
        type            empty;
        inGroups        List<word> 1(empty);
        nFaces          770;
        startFace       712;
    }
    procBoundary36to28
    {
        type            processor;
        inGroups        List<word> 1(processor);
        nFaces          21;
        startFace       1482;
        matchTolerance  0.0001;
        transform       unknown;
        myProcNo        36;
        neighbProcNo    28;
    }
    procBoundary36to29
    {
        type            processor;
        inGroups        List<word> 1(processor);
        nFaces          13;
        startFace       1503;
        matchTolerance  0.0001;
        transform       unknown;
        myProcNo        36;
        neighbProcNo    29;
    }
    procBoundary36to35
    {
        type            processor;
        inGroups        List<word> 1(processor);
        nFaces          24;
        startFace       1516;
        matchTolerance  0.0001;
        transform       unknown;
        myProcNo        36;
        neighbProcNo    35;
    }
    procBoundary36to37
    {
        type            processor;
        inGroups        List<word> 1(processor);
        nFaces          24;
        startFace       1540;
        matchTolerance  0.0001;
        transform       unknown;
        myProcNo        36;
        neighbProcNo    37;
    }
    procBoundary36to43
    {
        type            processor;
        inGroups        List<word> 1(processor);
        nFaces          15;
        startFace       1564;
        matchTolerance  0.0001;
        transform       unknown;
        myProcNo        36;
        neighbProcNo    43;
    }
    procBoundary36to44
    {
        type            processor;
        inGroups        List<word> 1(processor);
        nFaces          19;
        startFace       1579;
        matchTolerance  0.0001;
        transform       unknown;
        myProcNo        36;
        neighbProcNo    44;
    }
)

// ************************************************************************* //
