/*--------------------------------*- C++ -*----------------------------------*\
  =========                 |
  \\      /  F ield         | OpenFOAM: The Open Source CFD Toolbox
   \\    /   O peration     | Website:  https://openfoam.org
    \\  /    A nd           | Version:  7
     \\/     M anipulation  |
\*---------------------------------------------------------------------------*/
FoamFile
{
    version     2.0;
    format      ascii;
    class       polyBoundaryMesh;
    location    "constant/polyMesh";
    object      boundary;
}
// * * * * * * * * * * * * * * * * * * * * * * * * * * * * * * * * * * * * * //

10
(
    inlet
    {
        type            patch;
        nFaces          28;
        startFace       1162;
    }
    outlet
    {
        type            patch;
        nFaces          0;
        startFace       1190;
    }
    cylinder
    {
        type            wall;
        inGroups        List<word> 1(wall);
        nFaces          0;
        startFace       1190;
    }
    top
    {
        type            symmetryPlane;
        inGroups        List<word> 1(symmetryPlane);
        nFaces          0;
        startFace       1190;
    }
    bottom
    {
        type            symmetryPlane;
        inGroups        List<word> 1(symmetryPlane);
        nFaces          0;
        startFace       1190;
    }
    defaultFaces
    {
        type            empty;
        inGroups        List<word> 1(empty);
        nFaces          1214;
        startFace       1190;
    }
    procBoundary16to8
    {
        type            processor;
        inGroups        List<word> 1(processor);
        nFaces          22;
        startFace       2404;
        matchTolerance  0.0001;
        transform       unknown;
        myProcNo        16;
        neighbProcNo    8;
    }
    procBoundary16to17
    {
        type            processor;
        inGroups        List<word> 1(processor);
        nFaces          30;
        startFace       2426;
        matchTolerance  0.0001;
        transform       unknown;
        myProcNo        16;
        neighbProcNo    17;
    }
    procBoundary16to24
    {
        type            processor;
        inGroups        List<word> 1(processor);
        nFaces          23;
        startFace       2456;
        matchTolerance  0.0001;
        transform       unknown;
        myProcNo        16;
        neighbProcNo    24;
    }
    procBoundary16to25
    {
        type            processor;
        inGroups        List<word> 1(processor);
        nFaces          1;
        startFace       2479;
        matchTolerance  0.0001;
        transform       unknown;
        myProcNo        16;
        neighbProcNo    25;
    }
)

// ************************************************************************* //
