/*--------------------------------*- C++ -*----------------------------------*\
  =========                 |
  \\      /  F ield         | OpenFOAM: The Open Source CFD Toolbox
   \\    /   O peration     | Website:  https://openfoam.org
    \\  /    A nd           | Version:  7
     \\/     M anipulation  |
\*---------------------------------------------------------------------------*/
FoamFile
{
    version     2.0;
    format      ascii;
    class       polyBoundaryMesh;
    location    "constant/polyMesh";
    object      boundary;
}
// * * * * * * * * * * * * * * * * * * * * * * * * * * * * * * * * * * * * * //

10
(
    inlet
    {
        type            patch;
        nFaces          0;
        startFace       727;
    }
    outlet
    {
        type            patch;
        nFaces          23;
        startFace       727;
    }
    cylinder
    {
        type            wall;
        inGroups        List<word> 1(wall);
        nFaces          0;
        startFace       750;
    }
    top
    {
        type            symmetryPlane;
        inGroups        List<word> 1(symmetryPlane);
        nFaces          0;
        startFace       750;
    }
    bottom
    {
        type            symmetryPlane;
        inGroups        List<word> 1(symmetryPlane);
        nFaces          0;
        startFace       750;
    }
    defaultFaces
    {
        type            empty;
        inGroups        List<word> 1(empty);
        nFaces          770;
        startFace       750;
    }
    procBoundary39to31
    {
        type            processor;
        inGroups        List<word> 1(processor);
        nFaces          19;
        startFace       1520;
        matchTolerance  0.0001;
        transform       unknown;
        myProcNo        39;
        neighbProcNo    31;
    }
    procBoundary39to38
    {
        type            processor;
        inGroups        List<word> 1(processor);
        nFaces          24;
        startFace       1539;
        matchTolerance  0.0001;
        transform       unknown;
        myProcNo        39;
        neighbProcNo    38;
    }
    procBoundary39to46
    {
        type            processor;
        inGroups        List<word> 1(processor);
        nFaces          5;
        startFace       1563;
        matchTolerance  0.0001;
        transform       unknown;
        myProcNo        39;
        neighbProcNo    46;
    }
    procBoundary39to47
    {
        type            processor;
        inGroups        List<word> 1(processor);
        nFaces          15;
        startFace       1568;
        matchTolerance  0.0001;
        transform       unknown;
        myProcNo        39;
        neighbProcNo    47;
    }
)

// ************************************************************************* //
