/*--------------------------------*- C++ -*----------------------------------*\
  =========                 |
  \\      /  F ield         | OpenFOAM: The Open Source CFD Toolbox
   \\    /   O peration     | Website:  https://openfoam.org
    \\  /    A nd           | Version:  7
     \\/     M anipulation  |
\*---------------------------------------------------------------------------*/
FoamFile
{
    version     2.0;
    format      ascii;
    class       polyBoundaryMesh;
    location    "constant/polyMesh";
    object      boundary;
}
// * * * * * * * * * * * * * * * * * * * * * * * * * * * * * * * * * * * * * //

13
(
    inlet
    {
        type            patch;
        nFaces          0;
        startFace       4678;
    }
    outlet
    {
        type            patch;
        nFaces          0;
        startFace       4678;
    }
    bottom
    {
        type            symmetryPlane;
        inGroups        List<word> 1(symmetryPlane);
        nFaces          0;
        startFace       4678;
    }
    top
    {
        type            symmetryPlane;
        inGroups        List<word> 1(symmetryPlane);
        nFaces          0;
        startFace       4678;
    }
    obstacle
    {
        type            patch;
        nFaces          0;
        startFace       4678;
    }
    front
    {
        type            empty;
        inGroups        List<word> 1(empty);
        nFaces          2413;
        startFace       4678;
    }
    back
    {
        type            empty;
        inGroups        List<word> 1(empty);
        nFaces          2413;
        startFace       7091;
    }
    procBoundary13to5
    {
        type            processor;
        inGroups        List<word> 1(processor);
        nFaces          129;
        startFace       9504;
        matchTolerance  0.0001;
        transform       unknown;
        myProcNo        13;
        neighbProcNo    5;
    }
    procBoundary13to6
    {
        type            processor;
        inGroups        List<word> 1(processor);
        nFaces          5;
        startFace       9633;
        matchTolerance  0.0001;
        transform       unknown;
        myProcNo        13;
        neighbProcNo    6;
    }
    procBoundary13to14
    {
        type            processor;
        inGroups        List<word> 1(processor);
        nFaces          14;
        startFace       9638;
        matchTolerance  0.0001;
        transform       unknown;
        myProcNo        13;
        neighbProcNo    14;
    }
    procBoundary13to20
    {
        type            processor;
        inGroups        List<word> 1(processor);
        nFaces          3;
        startFace       9652;
        matchTolerance  0.0001;
        transform       unknown;
        myProcNo        13;
        neighbProcNo    20;
    }
    procBoundary13to21
    {
        type            processor;
        inGroups        List<word> 1(processor);
        nFaces          129;
        startFace       9655;
        matchTolerance  0.0001;
        transform       unknown;
        myProcNo        13;
        neighbProcNo    21;
    }
    procBoundary13to28
    {
        type            processor;
        inGroups        List<word> 1(processor);
        nFaces          16;
        startFace       9784;
        matchTolerance  0.0001;
        transform       unknown;
        myProcNo        13;
        neighbProcNo    28;
    }
)

// ************************************************************************* //
