/*--------------------------------*- C++ -*----------------------------------*\
  =========                 |
  \\      /  F ield         | OpenFOAM: The Open Source CFD Toolbox
   \\    /   O peration     | Website:  https://openfoam.org
    \\  /    A nd           | Version:  7
     \\/     M anipulation  |
\*---------------------------------------------------------------------------*/
FoamFile
{
    version     2.0;
    format      ascii;
    class       polyBoundaryMesh;
    location    "constant/polyMesh";
    object      boundary;
}
// * * * * * * * * * * * * * * * * * * * * * * * * * * * * * * * * * * * * * //

12
(
    inlet
    {
        type            patch;
        nFaces          0;
        startFace       1143;
    }
    outlet
    {
        type            patch;
        nFaces          0;
        startFace       1143;
    }
    cylinder
    {
        type            wall;
        inGroups        List<word> 1(wall);
        nFaces          0;
        startFace       1143;
    }
    top
    {
        type            symmetryPlane;
        inGroups        List<word> 1(symmetryPlane);
        nFaces          0;
        startFace       1143;
    }
    bottom
    {
        type            symmetryPlane;
        inGroups        List<word> 1(symmetryPlane);
        nFaces          0;
        startFace       1143;
    }
    defaultFaces
    {
        type            empty;
        inGroups        List<word> 1(empty);
        nFaces          1214;
        startFace       1143;
    }
    procBoundary36to28
    {
        type            processor;
        inGroups        List<word> 1(processor);
        nFaces          30;
        startFace       2357;
        matchTolerance  0.0001;
        transform       unknown;
        myProcNo        36;
        neighbProcNo    28;
    }
    procBoundary36to35
    {
        type            processor;
        inGroups        List<word> 1(processor);
        nFaces          24;
        startFace       2387;
        matchTolerance  0.0001;
        transform       unknown;
        myProcNo        36;
        neighbProcNo    35;
    }
    procBoundary36to37
    {
        type            processor;
        inGroups        List<word> 1(processor);
        nFaces          30;
        startFace       2411;
        matchTolerance  0.0001;
        transform       unknown;
        myProcNo        36;
        neighbProcNo    37;
    }
    procBoundary36to43
    {
        type            processor;
        inGroups        List<word> 1(processor);
        nFaces          23;
        startFace       2441;
        matchTolerance  0.0001;
        transform       unknown;
        myProcNo        36;
        neighbProcNo    43;
    }
    procBoundary36to44
    {
        type            processor;
        inGroups        List<word> 1(processor);
        nFaces          27;
        startFace       2464;
        matchTolerance  0.0001;
        transform       unknown;
        myProcNo        36;
        neighbProcNo    44;
    }
    procBoundary36to45
    {
        type            processor;
        inGroups        List<word> 1(processor);
        nFaces          8;
        startFace       2491;
        matchTolerance  0.0001;
        transform       unknown;
        myProcNo        36;
        neighbProcNo    45;
    }
)

// ************************************************************************* //
