/*--------------------------------*- C++ -*----------------------------------*\
  =========                 |
  \\      /  F ield         | OpenFOAM: The Open Source CFD Toolbox
   \\    /   O peration     | Website:  https://openfoam.org
    \\  /    A nd           | Version:  7
     \\/     M anipulation  |
\*---------------------------------------------------------------------------*/
FoamFile
{
    version     2.0;
    format      ascii;
    class       polyBoundaryMesh;
    location    "constant/polyMesh";
    object      boundary;
}
// * * * * * * * * * * * * * * * * * * * * * * * * * * * * * * * * * * * * * //

9
(
    inlet
    {
        type            patch;
        nFaces          28;
        startFace       1166;
    }
    outlet
    {
        type            patch;
        nFaces          0;
        startFace       1194;
    }
    cylinder
    {
        type            wall;
        inGroups        List<word> 1(wall);
        nFaces          0;
        startFace       1194;
    }
    top
    {
        type            symmetryPlane;
        inGroups        List<word> 1(symmetryPlane);
        nFaces          21;
        startFace       1194;
    }
    bottom
    {
        type            symmetryPlane;
        inGroups        List<word> 1(symmetryPlane);
        nFaces          0;
        startFace       1215;
    }
    defaultFaces
    {
        type            empty;
        inGroups        List<word> 1(empty);
        nFaces          1216;
        startFace       1215;
    }
    procBoundary48to40
    {
        type            processor;
        inGroups        List<word> 1(processor);
        nFaces          22;
        startFace       2431;
        matchTolerance  0.0001;
        transform       unknown;
        myProcNo        48;
        neighbProcNo    40;
    }
    procBoundary48to41
    {
        type            processor;
        inGroups        List<word> 1(processor);
        nFaces          3;
        startFace       2453;
        matchTolerance  0.0001;
        transform       unknown;
        myProcNo        48;
        neighbProcNo    41;
    }
    procBoundary48to49
    {
        type            processor;
        inGroups        List<word> 1(processor);
        nFaces          26;
        startFace       2456;
        matchTolerance  0.0001;
        transform       unknown;
        myProcNo        48;
        neighbProcNo    49;
    }
)

// ************************************************************************* //
