/*--------------------------------*- C++ -*----------------------------------*\
  =========                 |
  \\      /  F ield         | OpenFOAM: The Open Source CFD Toolbox
   \\    /   O peration     | Website:  https://openfoam.org
    \\  /    A nd           | Version:  7
     \\/     M anipulation  |
\*---------------------------------------------------------------------------*/
FoamFile
{
    version     2.0;
    format      ascii;
    class       polyBoundaryMesh;
    location    "constant/polyMesh";
    object      boundary;
}
// * * * * * * * * * * * * * * * * * * * * * * * * * * * * * * * * * * * * * //

9
(
    inlet
    {
        type            patch;
        nFaces          0;
        startFace       1165;
    }
    outlet
    {
        type            patch;
        nFaces          0;
        startFace       1165;
    }
    cylinder
    {
        type            wall;
        inGroups        List<word> 1(wall);
        nFaces          0;
        startFace       1165;
    }
    top
    {
        type            symmetryPlane;
        inGroups        List<word> 1(symmetryPlane);
        nFaces          24;
        startFace       1165;
    }
    bottom
    {
        type            symmetryPlane;
        inGroups        List<word> 1(symmetryPlane);
        nFaces          0;
        startFace       1189;
    }
    defaultFaces
    {
        type            empty;
        inGroups        List<word> 1(empty);
        nFaces          1216;
        startFace       1189;
    }
    procBoundary52to44
    {
        type            processor;
        inGroups        List<word> 1(processor);
        nFaces          25;
        startFace       2405;
        matchTolerance  0.0001;
        transform       unknown;
        myProcNo        52;
        neighbProcNo    44;
    }
    procBoundary52to51
    {
        type            processor;
        inGroups        List<word> 1(processor);
        nFaces          27;
        startFace       2430;
        matchTolerance  0.0001;
        transform       unknown;
        myProcNo        52;
        neighbProcNo    51;
    }
    procBoundary52to53
    {
        type            processor;
        inGroups        List<word> 1(processor);
        nFaces          26;
        startFace       2457;
        matchTolerance  0.0001;
        transform       unknown;
        myProcNo        52;
        neighbProcNo    53;
    }
)

// ************************************************************************* //
