/*--------------------------------*- C++ -*----------------------------------*\
  =========                 |
  \\      /  F ield         | OpenFOAM: The Open Source CFD Toolbox
   \\    /   O peration     | Website:  https://openfoam.org
    \\  /    A nd           | Version:  7
     \\/     M anipulation  |
\*---------------------------------------------------------------------------*/
FoamFile
{
    version     2.0;
    format      ascii;
    class       polyBoundaryMesh;
    location    "constant/polyMesh";
    object      boundary;
}
// * * * * * * * * * * * * * * * * * * * * * * * * * * * * * * * * * * * * * //

10
(
    inlet
    {
        type            patch;
        nFaces          0;
        startFace       1165;
    }
    outlet
    {
        type            patch;
        nFaces          0;
        startFace       1165;
    }
    cylinder
    {
        type            wall;
        inGroups        List<word> 1(wall);
        nFaces          0;
        startFace       1165;
    }
    top
    {
        type            symmetryPlane;
        inGroups        List<word> 1(symmetryPlane);
        nFaces          21;
        startFace       1165;
    }
    bottom
    {
        type            symmetryPlane;
        inGroups        List<word> 1(symmetryPlane);
        nFaces          0;
        startFace       1186;
    }
    defaultFaces
    {
        type            empty;
        inGroups        List<word> 1(empty);
        nFaces          1216;
        startFace       1186;
    }
    procBoundary53to44
    {
        type            processor;
        inGroups        List<word> 1(processor);
        nFaces          3;
        startFace       2402;
        matchTolerance  0.0001;
        transform       unknown;
        myProcNo        53;
        neighbProcNo    44;
    }
    procBoundary53to45
    {
        type            processor;
        inGroups        List<word> 1(processor);
        nFaces          24;
        startFace       2405;
        matchTolerance  0.0001;
        transform       unknown;
        myProcNo        53;
        neighbProcNo    45;
    }
    procBoundary53to52
    {
        type            processor;
        inGroups        List<word> 1(processor);
        nFaces          26;
        startFace       2429;
        matchTolerance  0.0001;
        transform       unknown;
        myProcNo        53;
        neighbProcNo    52;
    }
    procBoundary53to54
    {
        type            processor;
        inGroups        List<word> 1(processor);
        nFaces          28;
        startFace       2455;
        matchTolerance  0.0001;
        transform       unknown;
        myProcNo        53;
        neighbProcNo    54;
    }
)

// ************************************************************************* //
