/*--------------------------------*- C++ -*----------------------------------*\
  =========                 |
  \\      /  F ield         | OpenFOAM: The Open Source CFD Toolbox
   \\    /   O peration     | Website:  https://openfoam.org
    \\  /    A nd           | Version:  7
     \\/     M anipulation  |
\*---------------------------------------------------------------------------*/
FoamFile
{
    version     2.0;
    format      ascii;
    class       polyBoundaryMesh;
    location    "constant/polyMesh";
    object      boundary;
}
// * * * * * * * * * * * * * * * * * * * * * * * * * * * * * * * * * * * * * //

12
(
    inlet
    {
        type            patch;
        nFaces          0;
        startFace       1148;
    }
    outlet
    {
        type            patch;
        nFaces          0;
        startFace       1148;
    }
    cylinder
    {
        type            wall;
        inGroups        List<word> 1(wall);
        nFaces          0;
        startFace       1148;
    }
    top
    {
        type            symmetryPlane;
        inGroups        List<word> 1(symmetryPlane);
        nFaces          0;
        startFace       1148;
    }
    bottom
    {
        type            symmetryPlane;
        inGroups        List<word> 1(symmetryPlane);
        nFaces          0;
        startFace       1148;
    }
    defaultFaces
    {
        type            empty;
        inGroups        List<word> 1(empty);
        nFaces          1214;
        startFace       1148;
    }
    procBoundary33to25
    {
        type            processor;
        inGroups        List<word> 1(processor);
        nFaces          27;
        startFace       2362;
        matchTolerance  0.0001;
        transform       unknown;
        myProcNo        33;
        neighbProcNo    25;
    }
    procBoundary33to32
    {
        type            processor;
        inGroups        List<word> 1(processor);
        nFaces          28;
        startFace       2389;
        matchTolerance  0.0001;
        transform       unknown;
        myProcNo        33;
        neighbProcNo    32;
    }
    procBoundary33to34
    {
        type            processor;
        inGroups        List<word> 1(processor);
        nFaces          39;
        startFace       2417;
        matchTolerance  0.0001;
        transform       unknown;
        myProcNo        33;
        neighbProcNo    34;
    }
    procBoundary33to40
    {
        type            processor;
        inGroups        List<word> 1(processor);
        nFaces          7;
        startFace       2456;
        matchTolerance  0.0001;
        transform       unknown;
        myProcNo        33;
        neighbProcNo    40;
    }
    procBoundary33to41
    {
        type            processor;
        inGroups        List<word> 1(processor);
        nFaces          26;
        startFace       2463;
        matchTolerance  0.0001;
        transform       unknown;
        myProcNo        33;
        neighbProcNo    41;
    }
    procBoundary33to42
    {
        type            processor;
        inGroups        List<word> 1(processor);
        nFaces          5;
        startFace       2489;
        matchTolerance  0.0001;
        transform       unknown;
        myProcNo        33;
        neighbProcNo    42;
    }
)

// ************************************************************************* //
