/*--------------------------------*- C++ -*----------------------------------*\
  =========                 |
  \\      /  F ield         | OpenFOAM: The Open Source CFD Toolbox
   \\    /   O peration     | Website:  https://openfoam.org
    \\  /    A nd           | Version:  7
     \\/     M anipulation  |
\*---------------------------------------------------------------------------*/
FoamFile
{
    version     2.0;
    format      ascii;
    class       polyBoundaryMesh;
    location    "constant/polyMesh";
    object      boundary;
}
// * * * * * * * * * * * * * * * * * * * * * * * * * * * * * * * * * * * * * //

13
(
    inlet
    {
        type            patch;
        nFaces          0;
        startFace       4675;
    }
    outlet
    {
        type            patch;
        nFaces          0;
        startFace       4675;
    }
    bottom
    {
        type            symmetryPlane;
        inGroups        List<word> 1(symmetryPlane);
        nFaces          0;
        startFace       4675;
    }
    top
    {
        type            symmetryPlane;
        inGroups        List<word> 1(symmetryPlane);
        nFaces          0;
        startFace       4675;
    }
    obstacle
    {
        type            patch;
        nFaces          0;
        startFace       4675;
    }
    front
    {
        type            empty;
        inGroups        List<word> 1(empty);
        nFaces          2413;
        startFace       4675;
    }
    back
    {
        type            empty;
        inGroups        List<word> 1(empty);
        nFaces          2413;
        startFace       7088;
    }
    procBoundary38to30
    {
        type            processor;
        inGroups        List<word> 1(processor);
        nFaces          133;
        startFace       9501;
        matchTolerance  0.0001;
        transform       unknown;
        myProcNo        38;
        neighbProcNo    30;
    }
    procBoundary38to31
    {
        type            processor;
        inGroups        List<word> 1(processor);
        nFaces          1;
        startFace       9634;
        matchTolerance  0.0001;
        transform       unknown;
        myProcNo        38;
        neighbProcNo    31;
    }
    procBoundary38to37
    {
        type            processor;
        inGroups        List<word> 1(processor);
        nFaces          16;
        startFace       9635;
        matchTolerance  0.0001;
        transform       unknown;
        myProcNo        38;
        neighbProcNo    37;
    }
    procBoundary38to39
    {
        type            processor;
        inGroups        List<word> 1(processor);
        nFaces          17;
        startFace       9651;
        matchTolerance  0.0001;
        transform       unknown;
        myProcNo        38;
        neighbProcNo    39;
    }
    procBoundary38to45
    {
        type            processor;
        inGroups        List<word> 1(processor);
        nFaces          2;
        startFace       9668;
        matchTolerance  0.0001;
        transform       unknown;
        myProcNo        38;
        neighbProcNo    45;
    }
    procBoundary38to46
    {
        type            processor;
        inGroups        List<word> 1(processor);
        nFaces          133;
        startFace       9670;
        matchTolerance  0.0001;
        transform       unknown;
        myProcNo        38;
        neighbProcNo    46;
    }
)

// ************************************************************************* //
