/*--------------------------------*- C++ -*----------------------------------*\
  =========                 |
  \\      /  F ield         | OpenFOAM: The Open Source CFD Toolbox
   \\    /   O peration     | Website:  https://openfoam.org
    \\  /    A nd           | Version:  7
     \\/     M anipulation  |
\*---------------------------------------------------------------------------*/
FoamFile
{
    version     2.0;
    format      ascii;
    class       polyBoundaryMesh;
    location    "constant/polyMesh";
    object      boundary;
}
// * * * * * * * * * * * * * * * * * * * * * * * * * * * * * * * * * * * * * //

8
(
    inlet
    {
        type            patch;
        nFaces          0;
        startFace       1166;
    }
    outlet
    {
        type            patch;
        nFaces          29;
        startFace       1166;
    }
    cylinder
    {
        type            wall;
        inGroups        List<word> 1(wall);
        nFaces          0;
        startFace       1195;
    }
    top
    {
        type            symmetryPlane;
        inGroups        List<word> 1(symmetryPlane);
        nFaces          21;
        startFace       1195;
    }
    bottom
    {
        type            symmetryPlane;
        inGroups        List<word> 1(symmetryPlane);
        nFaces          0;
        startFace       1216;
    }
    defaultFaces
    {
        type            empty;
        inGroups        List<word> 1(empty);
        nFaces          1216;
        startFace       1216;
    }
    procBoundary55to47
    {
        type            processor;
        inGroups        List<word> 1(processor);
        nFaces          22;
        startFace       2432;
        matchTolerance  0.0001;
        transform       unknown;
        myProcNo        55;
        neighbProcNo    47;
    }
    procBoundary55to54
    {
        type            processor;
        inGroups        List<word> 1(processor);
        nFaces          28;
        startFace       2454;
        matchTolerance  0.0001;
        transform       unknown;
        myProcNo        55;
        neighbProcNo    54;
    }
)

// ************************************************************************* //
