/*--------------------------------*- C++ -*----------------------------------*\
  =========                 |
  \\      /  F ield         | OpenFOAM: The Open Source CFD Toolbox
   \\    /   O peration     | Website:  https://openfoam.org
    \\  /    A nd           | Version:  7
     \\/     M anipulation  |
\*---------------------------------------------------------------------------*/
FoamFile
{
    version     2.0;
    format      ascii;
    class       polyBoundaryMesh;
    location    "constant/polyMesh";
    object      boundary;
}
// * * * * * * * * * * * * * * * * * * * * * * * * * * * * * * * * * * * * * //

12
(
    inlet
    {
        type            patch;
        nFaces          0;
        startFace       1152;
    }
    outlet
    {
        type            patch;
        nFaces          0;
        startFace       1152;
    }
    cylinder
    {
        type            wall;
        inGroups        List<word> 1(wall);
        nFaces          0;
        startFace       1152;
    }
    top
    {
        type            symmetryPlane;
        inGroups        List<word> 1(symmetryPlane);
        nFaces          0;
        startFace       1152;
    }
    bottom
    {
        type            symmetryPlane;
        inGroups        List<word> 1(symmetryPlane);
        nFaces          0;
        startFace       1152;
    }
    defaultFaces
    {
        type            empty;
        inGroups        List<word> 1(empty);
        nFaces          1214;
        startFace       1152;
    }
    procBoundary11to3
    {
        type            processor;
        inGroups        List<word> 1(processor);
        nFaces          18;
        startFace       2366;
        matchTolerance  0.0001;
        transform       unknown;
        myProcNo        11;
        neighbProcNo    3;
    }
    procBoundary11to10
    {
        type            processor;
        inGroups        List<word> 1(processor);
        nFaces          26;
        startFace       2384;
        matchTolerance  0.0001;
        transform       unknown;
        myProcNo        11;
        neighbProcNo    10;
    }
    procBoundary11to12
    {
        type            processor;
        inGroups        List<word> 1(processor);
        nFaces          18;
        startFace       2410;
        matchTolerance  0.0001;
        transform       unknown;
        myProcNo        11;
        neighbProcNo    12;
    }
    procBoundary11to18
    {
        type            processor;
        inGroups        List<word> 1(processor);
        nFaces          10;
        startFace       2428;
        matchTolerance  0.0001;
        transform       unknown;
        myProcNo        11;
        neighbProcNo    18;
    }
    procBoundary11to19
    {
        type            processor;
        inGroups        List<word> 1(processor);
        nFaces          29;
        startFace       2438;
        matchTolerance  0.0001;
        transform       unknown;
        myProcNo        11;
        neighbProcNo    19;
    }
    procBoundary11to20
    {
        type            processor;
        inGroups        List<word> 1(processor);
        nFaces          23;
        startFace       2467;
        matchTolerance  0.0001;
        transform       unknown;
        myProcNo        11;
        neighbProcNo    20;
    }
)

// ************************************************************************* //
