/*--------------------------------*- C++ -*----------------------------------*\
  =========                 |
  \\      /  F ield         | OpenFOAM: The Open Source CFD Toolbox
   \\    /   O peration     | Website:  https://openfoam.org
    \\  /    A nd           | Version:  7
     \\/     M anipulation  |
\*---------------------------------------------------------------------------*/
FoamFile
{
    version     2.0;
    format      ascii;
    class       polyBoundaryMesh;
    location    "constant/polyMesh";
    object      boundary;
}
// * * * * * * * * * * * * * * * * * * * * * * * * * * * * * * * * * * * * * //

12
(
    inlet
    {
        type            patch;
        nFaces          0;
        startFace       1163;
    }
    outlet
    {
        type            patch;
        nFaces          0;
        startFace       1163;
    }
    cylinder
    {
        type            wall;
        inGroups        List<word> 1(wall);
        nFaces          0;
        startFace       1163;
    }
    top
    {
        type            symmetryPlane;
        inGroups        List<word> 1(symmetryPlane);
        nFaces          0;
        startFace       1163;
    }
    bottom
    {
        type            symmetryPlane;
        inGroups        List<word> 1(symmetryPlane);
        nFaces          0;
        startFace       1163;
    }
    defaultFaces
    {
        type            empty;
        inGroups        List<word> 1(empty);
        nFaces          1214;
        startFace       1163;
    }
    procBoundary46to37
    {
        type            processor;
        inGroups        List<word> 1(processor);
        nFaces          3;
        startFace       2377;
        matchTolerance  0.0001;
        transform       unknown;
        myProcNo        46;
        neighbProcNo    37;
    }
    procBoundary46to38
    {
        type            processor;
        inGroups        List<word> 1(processor);
        nFaces          22;
        startFace       2380;
        matchTolerance  0.0001;
        transform       unknown;
        myProcNo        46;
        neighbProcNo    38;
    }
    procBoundary46to39
    {
        type            processor;
        inGroups        List<word> 1(processor);
        nFaces          3;
        startFace       2402;
        matchTolerance  0.0001;
        transform       unknown;
        myProcNo        46;
        neighbProcNo    39;
    }
    procBoundary46to45
    {
        type            processor;
        inGroups        List<word> 1(processor);
        nFaces          27;
        startFace       2405;
        matchTolerance  0.0001;
        transform       unknown;
        myProcNo        46;
        neighbProcNo    45;
    }
    procBoundary46to47
    {
        type            processor;
        inGroups        List<word> 1(processor);
        nFaces          26;
        startFace       2432;
        matchTolerance  0.0001;
        transform       unknown;
        myProcNo        46;
        neighbProcNo    47;
    }
    procBoundary46to54
    {
        type            processor;
        inGroups        List<word> 1(processor);
        nFaces          21;
        startFace       2458;
        matchTolerance  0.0001;
        transform       unknown;
        myProcNo        46;
        neighbProcNo    54;
    }
)

// ************************************************************************* //
