/*--------------------------------*- C++ -*----------------------------------*\
  =========                 |
  \\      /  F ield         | OpenFOAM: The Open Source CFD Toolbox
   \\    /   O peration     | Website:  https://openfoam.org
    \\  /    A nd           | Version:  7
     \\/     M anipulation  |
\*---------------------------------------------------------------------------*/
FoamFile
{
    version     2.0;
    format      ascii;
    class       polyBoundaryMesh;
    location    "constant/polyMesh";
    object      boundary;
}
// * * * * * * * * * * * * * * * * * * * * * * * * * * * * * * * * * * * * * //

13
(
    inlet
    {
        type            patch;
        nFaces          0;
        startFace       4710;
    }
    outlet
    {
        type            patch;
        nFaces          0;
        startFace       4710;
    }
    bottom
    {
        type            symmetryPlane;
        inGroups        List<word> 1(symmetryPlane);
        nFaces          0;
        startFace       4710;
    }
    top
    {
        type            symmetryPlane;
        inGroups        List<word> 1(symmetryPlane);
        nFaces          0;
        startFace       4710;
    }
    obstacle
    {
        type            patch;
        nFaces          0;
        startFace       4710;
    }
    front
    {
        type            empty;
        inGroups        List<word> 1(empty);
        nFaces          2413;
        startFace       4710;
    }
    back
    {
        type            empty;
        inGroups        List<word> 1(empty);
        nFaces          2413;
        startFace       7123;
    }
    procBoundary44to36
    {
        type            processor;
        inGroups        List<word> 1(processor);
        nFaces          89;
        startFace       9536;
        matchTolerance  0.0001;
        transform       unknown;
        myProcNo        44;
        neighbProcNo    36;
    }
    procBoundary44to37
    {
        type            processor;
        inGroups        List<word> 1(processor);
        nFaces          18;
        startFace       9625;
        matchTolerance  0.0001;
        transform       unknown;
        myProcNo        44;
        neighbProcNo    37;
    }
    procBoundary44to43
    {
        type            processor;
        inGroups        List<word> 1(processor);
        nFaces          26;
        startFace       9643;
        matchTolerance  0.0001;
        transform       unknown;
        myProcNo        44;
        neighbProcNo    43;
    }
    procBoundary44to45
    {
        type            processor;
        inGroups        List<word> 1(processor);
        nFaces          9;
        startFace       9669;
        matchTolerance  0.0001;
        transform       unknown;
        myProcNo        44;
        neighbProcNo    45;
    }
    procBoundary44to51
    {
        type            processor;
        inGroups        List<word> 1(processor);
        nFaces          1;
        startFace       9678;
        matchTolerance  0.0001;
        transform       unknown;
        myProcNo        44;
        neighbProcNo    51;
    }
    procBoundary44to52
    {
        type            processor;
        inGroups        List<word> 1(processor);
        nFaces          89;
        startFace       9679;
        matchTolerance  0.0001;
        transform       unknown;
        myProcNo        44;
        neighbProcNo    52;
    }
)

// ************************************************************************* //
