/*--------------------------------*- C++ -*----------------------------------*\
  =========                 |
  \\      /  F ield         | OpenFOAM: The Open Source CFD Toolbox
   \\    /   O peration     | Website:  https://openfoam.org
    \\  /    A nd           | Version:  7
     \\/     M anipulation  |
\*---------------------------------------------------------------------------*/
FoamFile
{
    version     2.0;
    format      ascii;
    class       polyBoundaryMesh;
    location    "constant/polyMesh";
    object      boundary;
}
// * * * * * * * * * * * * * * * * * * * * * * * * * * * * * * * * * * * * * //

10
(
    inlet
    {
        type            patch;
        nFaces          18;
        startFace       4684;
    }
    outlet
    {
        type            patch;
        nFaces          0;
        startFace       4702;
    }
    bottom
    {
        type            symmetryPlane;
        inGroups        List<word> 1(symmetryPlane);
        nFaces          0;
        startFace       4702;
    }
    top
    {
        type            symmetryPlane;
        inGroups        List<word> 1(symmetryPlane);
        nFaces          133;
        startFace       4702;
    }
    obstacle
    {
        type            patch;
        nFaces          0;
        startFace       4835;
    }
    front
    {
        type            empty;
        inGroups        List<word> 1(empty);
        nFaces          2418;
        startFace       4835;
    }
    back
    {
        type            empty;
        inGroups        List<word> 1(empty);
        nFaces          2418;
        startFace       7253;
    }
    procBoundary48to40
    {
        type            processor;
        inGroups        List<word> 1(processor);
        nFaces          133;
        startFace       9671;
        matchTolerance  0.0001;
        transform       unknown;
        myProcNo        48;
        neighbProcNo    40;
    }
    procBoundary48to41
    {
        type            processor;
        inGroups        List<word> 1(processor);
        nFaces          1;
        startFace       9804;
        matchTolerance  0.0001;
        transform       unknown;
        myProcNo        48;
        neighbProcNo    41;
    }
    procBoundary48to49
    {
        type            processor;
        inGroups        List<word> 1(processor);
        nFaces          19;
        startFace       9805;
        matchTolerance  0.0001;
        transform       unknown;
        myProcNo        48;
        neighbProcNo    49;
    }
)

// ************************************************************************* //
