/*--------------------------------*- C++ -*----------------------------------*\
  =========                 |
  \\      /  F ield         | OpenFOAM: The Open Source CFD Toolbox
   \\    /   O peration     | Website:  https://openfoam.org
    \\  /    A nd           | Version:  7
     \\/     M anipulation  |
\*---------------------------------------------------------------------------*/
FoamFile
{
    version     2.0;
    format      ascii;
    class       polyBoundaryMesh;
    location    "constant/polyMesh";
    object      boundary;
}
// * * * * * * * * * * * * * * * * * * * * * * * * * * * * * * * * * * * * * //

12
(
    inlet
    {
        type            patch;
        nFaces          0;
        startFace       729;
    }
    outlet
    {
        type            patch;
        nFaces          0;
        startFace       729;
    }
    cylinder
    {
        type            wall;
        inGroups        List<word> 1(wall);
        nFaces          0;
        startFace       729;
    }
    top
    {
        type            symmetryPlane;
        inGroups        List<word> 1(symmetryPlane);
        nFaces          0;
        startFace       729;
    }
    bottom
    {
        type            symmetryPlane;
        inGroups        List<word> 1(symmetryPlane);
        nFaces          0;
        startFace       729;
    }
    defaultFaces
    {
        type            empty;
        inGroups        List<word> 1(empty);
        nFaces          770;
        startFace       729;
    }
    procBoundary45to37
    {
        type            processor;
        inGroups        List<word> 1(processor);
        nFaces          19;
        startFace       1499;
        matchTolerance  0.0001;
        transform       unknown;
        myProcNo        45;
        neighbProcNo    37;
    }
    procBoundary45to44
    {
        type            processor;
        inGroups        List<word> 1(processor);
        nFaces          20;
        startFace       1518;
        matchTolerance  0.0001;
        transform       unknown;
        myProcNo        45;
        neighbProcNo    44;
    }
    procBoundary45to46
    {
        type            processor;
        inGroups        List<word> 1(processor);
        nFaces          13;
        startFace       1538;
        matchTolerance  0.0001;
        transform       unknown;
        myProcNo        45;
        neighbProcNo    46;
    }
    procBoundary45to52
    {
        type            processor;
        inGroups        List<word> 1(processor);
        nFaces          2;
        startFace       1551;
        matchTolerance  0.0001;
        transform       unknown;
        myProcNo        45;
        neighbProcNo    52;
    }
    procBoundary45to53
    {
        type            processor;
        inGroups        List<word> 1(processor);
        nFaces          20;
        startFace       1553;
        matchTolerance  0.0001;
        transform       unknown;
        myProcNo        45;
        neighbProcNo    53;
    }
    procBoundary45to54
    {
        type            processor;
        inGroups        List<word> 1(processor);
        nFaces          8;
        startFace       1573;
        matchTolerance  0.0001;
        transform       unknown;
        myProcNo        45;
        neighbProcNo    54;
    }
)

// ************************************************************************* //
