/*--------------------------------*- C++ -*----------------------------------*\
  =========                 |
  \\      /  F ield         | OpenFOAM: The Open Source CFD Toolbox
   \\    /   O peration     | Website:  https://openfoam.org
    \\  /    A nd           | Version:  7
     \\/     M anipulation  |
\*---------------------------------------------------------------------------*/
FoamFile
{
    version     2.0;
    format      ascii;
    class       dictionary;
    location    "system";
    object      sample;
}
// * * * * * * * * * * * * * * * * * * * * * * * * * * * * * * * * * * * * * //

type sets;
libs            ("libsampling.so");

interpolationScheme cell;

setFormat       raw;

writeControl    writeTime; // this ensures that it's writing only at writeInterval

sets
(

    // make sure to change (x1 y1 z1) and (x2 y2 z2) to
    // the coordinates of the start and end points
    backstepHorz
    {
        type    lineCell;
        axis    xyz;
        start   (0 1.21 0);
        end     (1.0 1.21 0);
    }
    backstepFace
    {
        type    lineCell;
        axis    xyz;
        start   (1.01 1.2 0);
        end     (1.01 0 0);
    }
    cavity
    {
        type    lineCell;
        axis    xyz;
        start   (1 0.01 0);
        end     (4 0.01 0);
    }
    frontstepFace
    {
        type    lineCell;
        axis    xyz;
        start   (3.99 0 0);
        end     (3.99 1.2 0);
    }
    frontstepHorz
    {
        type    lineCell;
        axis    xyz;
        start   (4 1.21 0);
        end     (9 1.21 0);
    }
    top
    {
        type    lineCell;
        axis    xyz;
        start   (0 3.99 0);
        end     (9 3.99 0);
    }
);

fields          ( p U T);


// ************************************************************************* //