/*--------------------------------*- C++ -*----------------------------------*\
  =========                 |
  \\      /  F ield         | OpenFOAM: The Open Source CFD Toolbox
   \\    /   O peration     | Website:  https://openfoam.org
    \\  /    A nd           | Version:  7
     \\/     M anipulation  |
\*---------------------------------------------------------------------------*/
FoamFile
{
    version     2.0;
    format      ascii;
    class       polyBoundaryMesh;
    location    "constant/polyMesh";
    object      boundary;
}
// * * * * * * * * * * * * * * * * * * * * * * * * * * * * * * * * * * * * * //

12
(
    inlet
    {
        type            patch;
        nFaces          0;
        startFace       729;
    }
    outlet
    {
        type            patch;
        nFaces          0;
        startFace       729;
    }
    cylinder
    {
        type            wall;
        inGroups        List<word> 1(wall);
        nFaces          0;
        startFace       729;
    }
    top
    {
        type            symmetryPlane;
        inGroups        List<word> 1(symmetryPlane);
        nFaces          0;
        startFace       729;
    }
    bottom
    {
        type            symmetryPlane;
        inGroups        List<word> 1(symmetryPlane);
        nFaces          0;
        startFace       729;
    }
    defaultFaces
    {
        type            empty;
        inGroups        List<word> 1(empty);
        nFaces          770;
        startFace       729;
    }
    procBoundary44to36
    {
        type            processor;
        inGroups        List<word> 1(processor);
        nFaces          19;
        startFace       1499;
        matchTolerance  0.0001;
        transform       unknown;
        myProcNo        44;
        neighbProcNo    36;
    }
    procBoundary44to37
    {
        type            processor;
        inGroups        List<word> 1(processor);
        nFaces          2;
        startFace       1518;
        matchTolerance  0.0001;
        transform       unknown;
        myProcNo        44;
        neighbProcNo    37;
    }
    procBoundary44to43
    {
        type            processor;
        inGroups        List<word> 1(processor);
        nFaces          18;
        startFace       1520;
        matchTolerance  0.0001;
        transform       unknown;
        myProcNo        44;
        neighbProcNo    43;
    }
    procBoundary44to45
    {
        type            processor;
        inGroups        List<word> 1(processor);
        nFaces          20;
        startFace       1538;
        matchTolerance  0.0001;
        transform       unknown;
        myProcNo        44;
        neighbProcNo    45;
    }
    procBoundary44to51
    {
        type            processor;
        inGroups        List<word> 1(processor);
        nFaces          6;
        startFace       1558;
        matchTolerance  0.0001;
        transform       unknown;
        myProcNo        44;
        neighbProcNo    51;
    }
    procBoundary44to52
    {
        type            processor;
        inGroups        List<word> 1(processor);
        nFaces          17;
        startFace       1564;
        matchTolerance  0.0001;
        transform       unknown;
        myProcNo        44;
        neighbProcNo    52;
    }
)

// ************************************************************************* //
