/*--------------------------------*- C++ -*----------------------------------*\
  =========                 |
  \\      /  F ield         | OpenFOAM: The Open Source CFD Toolbox
   \\    /   O peration     | Website:  https://openfoam.org
    \\  /    A nd           | Version:  7
     \\/     M anipulation  |
\*---------------------------------------------------------------------------*/
FoamFile
{
    version     2.0;
    format      ascii;
    class       polyBoundaryMesh;
    location    "constant/polyMesh";
    object      boundary;
}
// * * * * * * * * * * * * * * * * * * * * * * * * * * * * * * * * * * * * * //

13
(
    inlet
    {
        type            patch;
        nFaces          0;
        startFace       4675;
    }
    outlet
    {
        type            patch;
        nFaces          0;
        startFace       4675;
    }
    bottom
    {
        type            symmetryPlane;
        inGroups        List<word> 1(symmetryPlane);
        nFaces          0;
        startFace       4675;
    }
    top
    {
        type            symmetryPlane;
        inGroups        List<word> 1(symmetryPlane);
        nFaces          0;
        startFace       4675;
    }
    obstacle
    {
        type            patch;
        nFaces          0;
        startFace       4675;
    }
    front
    {
        type            empty;
        inGroups        List<word> 1(empty);
        nFaces          2413;
        startFace       4675;
    }
    back
    {
        type            empty;
        inGroups        List<word> 1(empty);
        nFaces          2413;
        startFace       7088;
    }
    procBoundary22to14
    {
        type            processor;
        inGroups        List<word> 1(processor);
        nFaces          133;
        startFace       9501;
        matchTolerance  0.0001;
        transform       unknown;
        myProcNo        22;
        neighbProcNo    14;
    }
    procBoundary22to15
    {
        type            processor;
        inGroups        List<word> 1(processor);
        nFaces          1;
        startFace       9634;
        matchTolerance  0.0001;
        transform       unknown;
        myProcNo        22;
        neighbProcNo    15;
    }
    procBoundary22to21
    {
        type            processor;
        inGroups        List<word> 1(processor);
        nFaces          15;
        startFace       9635;
        matchTolerance  0.0001;
        transform       unknown;
        myProcNo        22;
        neighbProcNo    21;
    }
    procBoundary22to23
    {
        type            processor;
        inGroups        List<word> 1(processor);
        nFaces          17;
        startFace       9650;
        matchTolerance  0.0001;
        transform       unknown;
        myProcNo        22;
        neighbProcNo    23;
    }
    procBoundary22to29
    {
        type            processor;
        inGroups        List<word> 1(processor);
        nFaces          3;
        startFace       9667;
        matchTolerance  0.0001;
        transform       unknown;
        myProcNo        22;
        neighbProcNo    29;
    }
    procBoundary22to30
    {
        type            processor;
        inGroups        List<word> 1(processor);
        nFaces          133;
        startFace       9670;
        matchTolerance  0.0001;
        transform       unknown;
        myProcNo        22;
        neighbProcNo    30;
    }
)

// ************************************************************************* //
