/*--------------------------------*- C++ -*----------------------------------*\
  =========                 |
  \\      /  F ield         | OpenFOAM: The Open Source CFD Toolbox
   \\    /   O peration     | Website:  https://openfoam.org
    \\  /    A nd           | Version:  7
     \\/     M anipulation  |
\*---------------------------------------------------------------------------*/
FoamFile
{
    version     2.0;
    format      ascii;
    class       polyBoundaryMesh;
    location    "constant/polyMesh";
    object      boundary;
}
// * * * * * * * * * * * * * * * * * * * * * * * * * * * * * * * * * * * * * //

12
(
    inlet
    {
        type            patch;
        nFaces          0;
        startFace       718;
    }
    outlet
    {
        type            patch;
        nFaces          0;
        startFace       718;
    }
    cylinder
    {
        type            wall;
        inGroups        List<word> 1(wall);
        nFaces          0;
        startFace       718;
    }
    top
    {
        type            symmetryPlane;
        inGroups        List<word> 1(symmetryPlane);
        nFaces          0;
        startFace       718;
    }
    bottom
    {
        type            symmetryPlane;
        inGroups        List<word> 1(symmetryPlane);
        nFaces          0;
        startFace       718;
    }
    defaultFaces
    {
        type            empty;
        inGroups        List<word> 1(empty);
        nFaces          770;
        startFace       718;
    }
    procBoundary17to8
    {
        type            processor;
        inGroups        List<word> 1(processor);
        nFaces          8;
        startFace       1488;
        matchTolerance  0.0001;
        transform       unknown;
        myProcNo        17;
        neighbProcNo    8;
    }
    procBoundary17to9
    {
        type            processor;
        inGroups        List<word> 1(processor);
        nFaces          20;
        startFace       1496;
        matchTolerance  0.0001;
        transform       unknown;
        myProcNo        17;
        neighbProcNo    9;
    }
    procBoundary17to10
    {
        type            processor;
        inGroups        List<word> 1(processor);
        nFaces          3;
        startFace       1516;
        matchTolerance  0.0001;
        transform       unknown;
        myProcNo        17;
        neighbProcNo    10;
    }
    procBoundary17to16
    {
        type            processor;
        inGroups        List<word> 1(processor);
        nFaces          22;
        startFace       1519;
        matchTolerance  0.0001;
        transform       unknown;
        myProcNo        17;
        neighbProcNo    16;
    }
    procBoundary17to18
    {
        type            processor;
        inGroups        List<word> 1(processor);
        nFaces          31;
        startFace       1541;
        matchTolerance  0.0001;
        transform       unknown;
        myProcNo        17;
        neighbProcNo    18;
    }
    procBoundary17to25
    {
        type            processor;
        inGroups        List<word> 1(processor);
        nFaces          20;
        startFace       1572;
        matchTolerance  0.0001;
        transform       unknown;
        myProcNo        17;
        neighbProcNo    25;
    }
)

// ************************************************************************* //
