/*--------------------------------*- C++ -*----------------------------------*\
| =========                 |                                                 |
| \\      /  Field         | OpenFOAM: The Open Source CFD Toolbox           |
|  \\    /   Operation     | Version:  7                                     |
|   \\  /    And           | Web:      www.OpenFOAM.com                      |
|    \\/     Manipulation  |                                                 |
\*---------------------------------------------------------------------------*/


FoamFile
{
    version     2.0;
    format      ascii;
    class       dictionary;
    location    "system";
    object      sample;
}
// * * * * * * * * * * * * * * * * * * * * * * * * * * * * * * * * * * * * * * //

type sets; 
libs 		("libsampling.so");

interpolationScheme cell;

fields ( p U );

setFormat raw;

sets
(
    piOver2
    {
        type    lineCell;
	axis    xyz;
        start   (0 0 0.05);
        end     (0.1 8.49 0.05);
    }
    
    piOver4
    {
        type    lineCell;
	axis    xyz;
        start   (0 0 0.05);
        end     (5.85 6 0.05);
    }

    3piOver4
    {
        type    lineCell;
	axis    xyz;
        start   (0 0 0.05);
        end     (-5.85 6 0.05);
    }
);
