/*--------------------------------*- C++ -*----------------------------------*\
  =========                 |
  \\      /  F ield         | OpenFOAM: The Open Source CFD Toolbox
   \\    /   O peration     | Website:  https://openfoam.org
    \\  /    A nd           | Version:  7
     \\/     M anipulation  |
\*---------------------------------------------------------------------------*/
FoamFile
{
    version     2.0;
    format      ascii;
    class       dictionary;
    location    "system";
    object      sample;
}
// * * * * * * * * * * * * * * * * * * * * * * * * * * * * * * * * * * * * * //

type sets;
libs            ("libsampling.so");

interpolationScheme cell;

setFormat       raw;

writeControl    writeTime; // this ensures that it's writing only at writeInterval

sets
(

    // make sure to change (x1 y1 z1) and (x2 y2 z2) to
    // the coordinates of the start and end points

    piOver2 
    {
        type    lineCell;
        axis    xyz;
        start   (0.0 0.0 0.05);
        end     (0.1 8.49 0.05);
    }
    piOver4 
    {
        type    lineCell;
        axis    xyz;
        start   (0.0 0.0 0.05);
        end     (5.85 6.0 0.05);
    }
    3piOver4 
    {
        type    lineCell;
        axis    xyz;
        start   (0.0 0.0 0.05);
        end     (-5.85 6.0 0.05);
    }
);

fields          ( p U );


// ************************************************************************* //
