/*--------------------------------*- C++ -*----------------------------------*\
  =========                 |
  \\      /  F ield         | OpenFOAM: The Open Source CFD Toolbox
   \\    /   O peration     | Website:  https://openfoam.org
    \\  /    A nd           | Version:  7
     \\/     M anipulation  |
\*---------------------------------------------------------------------------*/
FoamFile
{
    version     2.0;
    format      ascii;
    class       polyBoundaryMesh;
    location    "constant/polyMesh";
    object      boundary;
}
// * * * * * * * * * * * * * * * * * * * * * * * * * * * * * * * * * * * * * //

10
(
    inlet
    {
        type            patch;
        nFaces          0;
        startFace       727;
    }
    outlet
    {
        type            patch;
        nFaces          24;
        startFace       727;
    }
    cylinder
    {
        type            wall;
        inGroups        List<word> 1(wall);
        nFaces          0;
        startFace       751;
    }
    top
    {
        type            symmetryPlane;
        inGroups        List<word> 1(symmetryPlane);
        nFaces          0;
        startFace       751;
    }
    bottom
    {
        type            symmetryPlane;
        inGroups        List<word> 1(symmetryPlane);
        nFaces          0;
        startFace       751;
    }
    defaultFaces
    {
        type            empty;
        inGroups        List<word> 1(empty);
        nFaces          770;
        startFace       751;
    }
    procBoundary23to15
    {
        type            processor;
        inGroups        List<word> 1(processor);
        nFaces          14;
        startFace       1521;
        matchTolerance  0.0001;
        transform       unknown;
        myProcNo        23;
        neighbProcNo    15;
    }
    procBoundary23to22
    {
        type            processor;
        inGroups        List<word> 1(processor);
        nFaces          28;
        startFace       1535;
        matchTolerance  0.0001;
        transform       unknown;
        myProcNo        23;
        neighbProcNo    22;
    }
    procBoundary23to30
    {
        type            processor;
        inGroups        List<word> 1(processor);
        nFaces          1;
        startFace       1563;
        matchTolerance  0.0001;
        transform       unknown;
        myProcNo        23;
        neighbProcNo    30;
    }
    procBoundary23to31
    {
        type            processor;
        inGroups        List<word> 1(processor);
        nFaces          19;
        startFace       1564;
        matchTolerance  0.0001;
        transform       unknown;
        myProcNo        23;
        neighbProcNo    31;
    }
)

// ************************************************************************* //
